60 

C    -0.7381717   -4.3998440    0.3518509 
C    -1.0338918   -4.0506444   -0.9592933 
C    -2.1697515   -3.1156461   -0.9489296 
C    -1.7128091   -3.6815049    1.2152415 
C    -2.5368755   -2.8234505    0.4007249 
C    -0.9885843   -3.1148885    2.2456881 
C     0.5962934   -4.1611837    0.8837419 
C     0.4347589   -3.4313418    2.1120363 
C     1.6074620   -3.7539742   -0.0008213 
C    -0.0378576   -3.5403419   -1.8634124 
C     1.3057980   -3.5488513   -1.4228623 
C    -1.8903725   -2.0930984   -1.8734673 
C    -0.5716344   -2.3223369   -2.4554531 
C    -2.3682727   -0.7878009   -1.6396800 
C    -2.7523031   -1.4529401    0.7515987 
C    -2.9541746   -0.5199647   -0.3359592 
C    -1.1374403   -1.7207331    2.5867066 
C    -2.1015634   -0.8959991    1.9417126 
C     1.1354688   -2.2289472    2.3603038 
C     0.1760041   -1.2101387    2.8121778 
C     2.5121636   -2.6596277    0.3917833 
C     2.2218762   -1.8068510    1.5247615 
C     2.1506851   -2.5080741   -1.8957039 
C     2.9743104   -2.0456409   -0.7974539 
C     0.2442902   -1.1858727   -2.7570391 
C     1.6491254   -1.3451680   -2.5326674 
C    -1.7396065    0.3116308   -2.3599619 
C    -0.3414127    0.1637678   -2.7428525 
C    -2.2631940    1.6085695   -2.1352521 
C    -3.1674321    0.8373320    0.0129323 
C    -3.0779023    1.8446311   -0.9695149 
C    -1.9116640    0.5345341    2.0922377 
C    -2.6849974    1.3941726    1.2629179 
C     0.4628888    0.1595098    2.7616882 
C    -0.6651496    1.0674758    2.6204793 
C     2.5512267   -0.3834540    1.4873404 
C     1.7943133    0.5601756    2.3153660 
C     3.1472269   -0.6498567   -0.8877485 
C     2.4000728   -0.1936511   -2.0328810 
C     3.1510016    0.1592320    0.2796439 
C     0.5257726    1.3294432   -2.6179011 
C     1.8877288    1.1141498   -2.1242997 
C    -1.4341671    2.7579578   -2.2597864 
C    -0.0477282    2.6236178   -2.3772296 
C    -2.6874943    3.0979398   -0.3436432 
C    -2.3791763    2.7967058    1.0404803 
C    -1.7184643    3.6963374   -1.1486996 
C    -0.3921209    2.4689831    2.4536459 
C    -1.2263291    3.3391709    1.5981578 
C     2.0111836    1.9548787    2.1730582 
C     0.9351923    2.8957736    2.3672510 
C     3.0656108    1.5498460    0.0111014 
C     2.4434874    2.0543120   -1.2088173 
C     2.7231100    2.4450810    1.0354012 
C     0.5730991    3.6152860   -1.4613693 
C    -0.4889729    4.1790587   -0.6208866 
C    -0.3235526    4.1711742    0.8024330 
C     0.9879320    3.9394036    1.3149928 
C     1.8213158    3.3389425   -0.9146011 
C     2.0536684    3.6227337    0.4807327 
