60 

C     0.1920202   -0.6518897   -4.6453566 
C    -0.1920202    0.6518897   -4.6453566 
C     0.8244092    1.4618360   -3.9505044 
C     1.4585525   -0.7540122   -3.8798629 
C     1.8043889    0.5672929   -3.3469203 
C     1.3159173   -1.7912226   -2.9848075 
C    -0.8244092   -1.4618360   -3.9505044 
C    -0.1208797   -2.2602082   -3.0607590 
C    -1.4585525    0.7540122   -3.8798629 
C    -1.8043889   -0.5672929   -3.3469203 
C     0.1208797    2.2602082   -3.0607590 
C    -1.3159173    1.7912226   -2.9848075 
C     0.7260023    2.6993387   -1.8739492 
C     2.1787928    0.7144457   -1.9643827 
C     1.8098758    1.9492790   -1.2826102 
C     1.9253048   -1.7393700   -1.6875198 
C     2.3451972   -0.4740013   -1.1145578 
C     1.5359842   -2.7785328   -0.8380872 
C    -0.7260023   -2.6993387   -1.8739492 
C     0.1854884   -3.3817912   -1.0266062 
C    -2.1787928   -0.7144457   -1.9643827 
C    -1.8098758   -1.9492790   -1.2826102 
C    -1.9253048    1.7393700   -1.6875198 
C    -2.3451972    0.4740013   -1.1145578 
C    -0.1854884    3.3817912   -1.0266062 
C    -1.5359842    2.7785328   -0.8380872 
C     0.2618203    3.8507956    0.1764033 
C     2.0819546    2.1359642    0.1315941 
C     1.4609301    3.2817721    0.7649292 
C     2.4289437   -0.3690424    0.3432695 
C     2.4269511    0.9639189    0.9513692 
C     1.8082658   -2.7792532    0.5461747 
C     2.1761998   -1.5557052    1.1885912 
C    -0.2618203   -3.8507956    0.1764033 
C     0.8222171   -3.6619469    1.1592390 
C    -2.0819546   -2.1359642    0.1315941 
C    -1.4609301   -3.2817721    0.7649292 
C    -2.4289437    0.3690424    0.3432695 
C    -2.4269511   -0.9639189    0.9513692 
C    -1.8082658    2.7792532    0.5461747 
C    -0.8222171    3.6619469    1.1592390 
C    -2.1761998    1.5557052    1.1885912 
C     1.2131471    3.2767406    2.1709639 
C    -0.2708192    3.4169097    2.3813937 
C     2.2310731    1.0411824    2.3703394 
C     1.6011771    2.2071025    2.9346377 
C     1.7228395   -1.3995626    2.5883784 
C     1.7202493   -0.0923954    3.1046660 
C     0.2708192   -3.4169097    2.3813937 
C    -1.2131471   -3.2767406    2.1709639 
C     0.7274525   -2.3075829    3.1611459 
C    -2.2310731   -1.0411824    2.3703394 
C    -1.6011771   -2.2071025    2.9346377 
C    -0.4580150   -1.7493630    3.7505306 
C    -1.7228395    1.3995626    2.5883784 
C    -0.7274525    2.3075829    3.1611459 
C     0.4580150    1.7493630    3.7505306 
C     0.5916830    0.3841201    3.9322978 
C    -1.7202493    0.0923954    3.1046660 
C    -0.5916830   -0.3841201    3.9322978 
