60 

C     1.4593230   -3.7437380    1.1502665 
C     1.5275434   -3.9031187   -0.2412352 
C     0.1788706   -4.1032393   -0.7543775 
C     0.0563711   -3.8053484    1.5233875 
C    -0.7508377   -3.9899497    0.3318906 
C    -0.2032147   -2.7214090    2.3858724 
C     2.0452788   -2.5820186    1.7710929 
C     1.0285762   -1.9217976    2.5680455 
C     2.9125891   -1.7787706    1.0319852 
C     2.1932555   -2.9180589   -1.0500512 
C     2.9989644   -1.9608829   -0.4232368 
C     0.0313483   -3.2698287   -1.8973187 
C     1.2561494   -2.4757008   -2.0755467 
C    -1.1939284   -2.6781439   -2.1604881 
C    -1.9624971   -3.2318779    0.1551730 
C    -2.2648654   -2.7628572   -1.1712608 
C    -1.4375175   -2.0607484    2.2861241 
C    -2.3602901   -2.3488788    1.2313996 
C    -1.5218052   -0.6591892    2.6328565 
C     0.9827404   -0.5180010    2.7184050 
C    -0.3414832    0.0981518    2.8975624 
C     2.9836315   -0.3704317    1.2949834 
C     2.0604784    0.3041084    2.1438737 
C     3.1395519   -0.6703680   -1.0129779 
C     3.3881037    0.2741892    0.0654865 
C     1.2169866   -1.1270823   -2.5171951 
C     2.3039555   -0.2508114   -2.0966097 
C    -1.2404116   -1.3498037   -2.7469097 
C    -0.0879499   -0.5267882   -2.8547239 
C    -3.0918332   -1.6141641   -1.3608368 
C    -2.4865774   -0.7764389   -2.3446292 
C    -3.1030387   -1.1132504    1.0004222 
C    -2.6111549   -0.0859560    1.9013594 
C    -3.4850555   -0.7528446   -0.2886112 
C    -2.6307413    1.2964507    1.5790470 
C    -0.4769801    1.4958962    2.7851940 
C    -1.6680827    2.0978760    2.2627752 
C     1.8813483    1.7526331    1.9517880 
C     0.6617340    2.3635460    2.4368070 
C     3.2219406    1.6278093   -0.1236430 
C     2.5352421    2.4288741    0.8789580 
C     2.1539781    1.1548494   -2.2796004 
C     2.7968795    2.0684581   -1.4107836 
C    -0.2787800    0.9362182   -2.7756522 
C     0.8616320    1.7479774   -2.6193392 
C    -2.6140317    0.5922786   -1.9848056 
C    -3.2861219    0.6417374   -0.7110694 
C    -2.9847564    1.6786905    0.2015465 
C    -1.5710666    1.4935982   -2.3111866 
C    -2.3492213    2.8296621   -0.3703121 
C    -1.6024498    2.7203307   -1.5975324 
C    -1.2859664    3.3881385    1.7517595 
C     0.1640740    3.5632008    1.9050834 
C    -1.6349476    3.7656021    0.4663884 
C     1.8845905    3.5426038    0.1723137 
C     1.9666995    3.2360690   -1.2249024 
C     0.7958917    3.0877588   -2.0216002 
C    -0.4154951    3.5676492   -1.4902985 
C     0.6845098    4.0903144    0.6652200 
C    -0.4311366    4.2268251   -0.2303333 
