60 

C     2.3573528   -3.5577368   -0.5016207 
C     1.1282916   -3.9240100   -1.0314535 
C     0.2270865   -4.1626432    0.0929944 
C     2.1727886   -3.2978825    0.9706032 
C     0.8321394   -3.5489992    1.2792840 
C     2.7803768   -2.0482764    1.2641031 
C     3.0478476   -2.4798124   -1.0365249 
C     3.5063704   -1.6500068    0.0875638 
C     2.4172321   -1.5939426   -1.9680086 
C     0.4334514   -3.0473220   -1.9442153 
C     1.0344777   -1.7979475   -2.3575595 
C    -1.0497988   -3.7992353   -0.2808750 
C    -0.9575996   -3.0672245   -1.5660402 
C    -1.9055184   -3.2991533    0.7249843 
C     0.0710511   -2.5529084    2.0328566 
C    -1.3219290   -2.5920861    1.8801937 
C     2.0740876   -1.0223310    2.0082364 
C     0.6936906   -1.2658136    2.3869849 
C     2.5599310    0.3432479    1.8607174 
C     3.5092254   -0.3190561   -0.3138425 
C     2.8511221   -0.2623716   -1.6069717 
C     3.2940222    0.7081037    0.6403938 
C     2.1313329    0.8849951   -1.9739896 
C     0.1712236   -0.6269845   -2.5612173 
C     0.7860518    0.7136768   -2.5508185 
C    -1.8276746   -1.9904895   -1.8225283 
C    -1.2722226   -0.7411236   -2.3758441 
C    -3.0208987   -2.5984318    0.3095062 
C    -3.0366248   -1.9455798   -1.0072853 
C    -2.1955731   -1.4421843    2.1476190 
C    -3.3450011   -1.5839792    1.3040766 
C    -0.1864172   -0.1156528    2.6256432 
C    -1.6373332   -0.1648285    2.3836447 
C     1.7924480    1.3754050    2.4522238 
C     0.4023399    1.1557660    2.7178666 
C     1.9282289    2.7463006    2.0296559 
C     3.1043356    1.9809762    0.0621973 
C     2.4818682    2.0705952   -1.2614459 
C     2.5662661    3.0437122    0.8356995 
C     1.6140424    3.2279311   -1.2816520 
C     1.6545822    3.8535810    0.0002743 
C    -0.0220685    1.8674243   -2.5838661 
C     0.3936080    3.1310306   -1.9833252 
C    -2.0726522    0.4744269   -2.2583827 
C    -1.4608337    1.7482455   -2.4355987 
C    -3.7009670   -0.7285026   -0.8263152 
C    -3.8528808   -0.4864165    0.6338150 
C    -3.2373625    0.4677004   -1.4036569 
C    -2.3242921    1.0330418    1.8322639 
C    -3.3950192    0.8149883    0.9050074 
C    -3.3437811    1.5080314   -0.3810745 
C    -0.3267777    2.3943209    2.3536158 
C     0.6000218    3.3738527    1.9913088 
C     0.4539319    4.0801365    0.7323955 
C    -1.6166206    2.2968578    1.7124137 
C    -0.7642517    3.6961511   -1.3717398 
C    -1.9100438    2.8958205   -1.7115826 
C    -2.6502374    2.6805211   -0.5137889 
C    -0.7758047    3.9656039    0.0439756 
C    -1.8606424    3.1804878    0.6091051 
