60 

C    -0.3736634   -5.1012799    0.3244302 
C    -1.5269597   -4.5242646    0.8200354 
C    -2.1565769   -3.7213085   -0.2214570 
C    -0.2226034   -4.6253745   -1.0682068 
C    -1.2915319   -3.6753361   -1.3769324 
C     1.0787843   -4.1538453   -1.2127080 
C     0.7481977   -4.5289911    1.0870822 
C     1.7101156   -4.1229429    0.1651611 
C    -1.1943564   -3.5789605    1.8924230 
C     0.2357111   -3.5037040    2.0134366 
C    -2.5616773   -2.4998839    0.3589677 
C    -1.9236772   -2.3789608    1.6849126 
C    -2.6192291   -1.3503372   -0.4168997 
C    -1.0055123   -2.3888014   -1.9758643 
C    -1.8763898   -1.2728529   -1.6538099 
C     1.3865836   -2.9258547   -1.8381924 
C     0.3680438   -2.0043740   -2.3062106 
C     2.3830600   -2.9010693    0.2922417 
C     2.4505717   -2.3337081   -1.0465991 
C     0.8540472   -2.2056074    2.1093766 
C     2.0724819   -1.9613620    1.3506586 
C    -1.3973014   -1.1221271    2.0583398 
C     0.0119343   -1.0142671    2.3564510 
C    -2.8321155   -0.1416070    0.3374270 
C    -2.1159755    0.0357860    1.5698041 
C    -3.1811082    0.9643955   -0.4300867 
C    -1.6144550    0.0612630   -2.1473463 
C    -2.5508332    1.0661250   -1.7632910 
C     0.7284951   -0.5880542   -2.4716902 
C    -0.2727631    0.4647599   -2.5162404 
C     2.7815859   -1.0333849   -1.2063863 
C     2.0462348   -0.1679154   -2.1018327 
C     2.5476821   -0.6145211    1.1908535 
C     3.1425432   -0.2454074   -0.0608194 
C     0.5750032    0.3117972    2.3851747 
C     1.9541109    0.4756162    1.9552150 
C    -1.6949189    1.3637876    1.9292980 
C    -0.3083968    1.5021205    2.4003705 
C    -3.1982718    2.2412808    0.1608263 
C    -2.3629910    2.4693117    1.3099213 
C    -2.2808674    2.4327366   -1.9696024 
C    -2.8439162    3.2024022   -0.8605873 
C     0.1016211    1.8875250   -2.3864416 
C    -0.9270973    2.8555397   -2.1623595 
C     2.3621044    1.1741725   -1.7364077 
C     3.1486508    1.1046123   -0.5009782 
C     1.4528900    2.2486349   -1.9258716 
C     2.4529248    1.7841030    1.7292894 
C     3.0690786    2.1140815    0.4346385 
C     0.2771830    2.7935799    2.3290074 
C     1.6851084    2.9251135    2.0992994 
C    -1.6376151    3.7121731    1.0403293 
C    -1.8697105    4.0700602   -0.3653926 
C    -0.7120794    4.0047322   -1.2578736 
C    -0.3748726    3.8838589    1.5661186 
C     1.6677083    3.4269816   -1.1199805 
C     2.5613318    3.3784064    0.0112230 
C     1.8936636    3.9849716    1.1322561 
C     0.5336087    4.2562864   -0.7196091 
C     0.6464064    4.4898884    0.7251087 
