60 

C     1.3047696    4.4980598    0.3228644 
C     1.2520713    4.3639472   -1.1116021 
C    -0.1074111    3.9778462   -1.4482334 
C    -0.0053966    4.2138578    0.8621264 
C    -0.8976568    3.9060516   -0.2263603 
C     0.1110770    3.2593406    1.9216135 
C     2.1916641    3.5294457    0.8654660 
C     1.5005923    2.7976042    1.9068921 
C     2.0826544    3.2794229   -1.4765289 
C     2.6873726    2.7431949   -0.2423053 
C    -0.0808769    2.8138706   -2.2666016 
C     1.3028825    2.3506793   -2.2767534 
C    -1.1295120    1.8708998   -2.2293361 
C    -1.8883062    2.8995738   -0.0894338 
C    -2.2070735    2.0917442   -1.2678411 
C    -0.9417169    2.3405557    2.1569507 
C    -2.0678263    2.2698931    1.2237924 
C    -0.5850716    1.1308379    2.8228786 
C     1.7793518    1.4344711    2.1259252 
C     0.7689122    0.6762162    2.7981748 
C     2.8482354    1.3565939   -0.1114809 
C     2.6138308    0.6929046    1.1776850 
C     1.5718853    0.9827199   -2.2494986 
C     2.5862585    0.5379648   -1.2964875 
C    -0.8369808    0.5013721   -2.6523544 
C     0.5322608    0.0216845   -2.6255165 
C    -1.8840051   -0.4612527   -2.5346491 
C    -3.1813494    1.0772562   -1.1315458 
C    -3.1001897   -0.1166530   -1.8976318 
C    -2.9403227    1.1481227    1.3181147 
C    -3.6308299    0.6934319    0.1820147 
C    -1.4227497   -0.0522187    2.8090262 
C    -2.6081793   -0.0488439    2.1100478 
C     0.7715655   -0.7596329    2.7982205 
C    -0.5949035   -1.2269221    2.8149124 
C     2.6945159   -0.7347704    1.2640746 
C     1.8031391   -1.4965581    2.1668175 
C     2.8133145   -0.8089756   -1.1935523 
C     3.1212340   -1.4352528    0.0837500 
C     0.8135676   -1.3988642   -2.5174501 
C     2.0937515   -1.7868135   -2.0002567 
C    -1.5884256   -1.8467857   -2.2339658 
C    -0.2842343   -2.3542151   -2.2945821 
C    -3.4773007   -1.2538156   -1.0441047 
C    -3.7480813   -0.7614984    0.2353934 
C    -3.0188044   -1.2395811    1.3734352 
C    -2.5306537   -2.2848356   -1.2045758 
C    -0.9670709   -2.4128679    2.1275041 
C    -2.1612707   -2.3745955    1.2671873 
C    -2.0163884   -2.9881082   -0.0635957 
C     1.4969153   -2.8642168    1.9011944 
C     0.1039694   -3.3007974    1.8324398 
C     2.9264215   -2.8178549   -0.0776643 
C     2.3117532   -3.0513874   -1.4053688 
C     2.2046004   -3.5915487    0.8700618 
C    -0.0647770   -3.5572386   -1.5292813 
C    -0.8844470   -3.7853903   -0.3411370 
C     0.0110145   -4.2100464    0.7148947 
C     1.2568140   -3.9709445   -1.1955133 
C     1.2954172   -4.4670770    0.1817502 
