60 

C    -0.5338396    4.1536941    1.5477256 
C     0.4067253    4.3755791    0.4969770 
C    -0.2819439    4.0841589   -0.7505013 
C    -1.7810216    3.6932386    1.0056378 
C    -1.6328311    3.5870376   -0.4196386 
C    -2.1706661    2.5455588    1.7577441 
C    -0.0328711    3.1489929    2.4445980 
C    -1.0238895    2.1255260    2.5845614 
C     1.6001012    3.6505482    0.8233634 
C     1.2778481    2.7986097    2.0077305 
C     2.3425186    3.1075037   -0.2311456 
C     0.4368797    3.4637027   -1.7799344 
C     1.8212686    3.1860031   -1.5719389 
C    -0.1241364    2.3197832   -2.5081413 
C    -2.1878648    2.4606944   -1.1115246 
C    -1.4247405    1.8359291   -2.2127210 
C    -2.8824282    1.5642550    1.1062051 
C    -3.0212947    1.5836663   -0.3444549 
C    -2.7886354    0.1978850    1.5340212 
C    -0.6596181    0.7507072    2.6476436 
C    -1.6617363   -0.2611803    2.2836376 
C     1.6798801    1.4490224    2.0544155 
C     0.7455530    0.4018528    2.5278264 
C     2.9490324    1.8091283   -0.0796571 
C     2.7146174    1.0449191    1.1022937 
C     2.1246197    1.9324967   -2.2238114 
C     0.9510396    1.3815503   -2.8004566 
C     2.8879683    1.1106672   -1.3650986 
C     0.7566146   -0.0396337   -2.8185675 
C    -1.6610842    0.4703275   -2.5451721 
C    -0.5896327   -0.4562469   -2.8729678 
C    -3.2853915    0.2341776   -0.7473658 
C    -3.3024303   -0.5979639    0.4521442 
C    -2.6903295   -0.3034698   -1.8977831 
C    -3.0132734   -1.9349799    0.4014964 
C    -1.3001975   -1.6659133    2.1979249 
C    -2.1654701   -2.5217768    1.4189829 
C     1.1199273   -1.0004545    2.4380547 
C     0.0984835   -2.0708051    2.4034233 
C     3.0275981   -0.3058097    1.0235022 
C     2.4207257   -1.2846356    1.8879608 
C     2.7968701   -0.2989992   -1.4417539 
C     1.7427033   -0.9474703   -2.2194337 
C     3.2761426   -0.9554414   -0.2697598 
C     1.3761462   -2.3315744   -1.9129839 
C    -0.9808815   -1.7871390   -2.4992298 
C    -2.3183342   -1.6945788   -1.9400964 
C    -2.6709500   -2.5583112   -0.8886711 
C    -0.0313307   -2.7689743   -2.0719132 
C    -1.6579266   -3.7251232    0.8483529 
C    -1.8440613   -3.6550627   -0.6241204 
C    -0.5622838   -3.8282471   -1.2287484 
C     0.4952036   -3.3905048    1.9461536 
C    -0.3924050   -4.1704243    1.1258219 
C     0.2756146   -4.3942347   -0.1938556 
C     2.6998470   -2.5533416    1.3017439 
C     3.0819710   -2.3126780   -0.1135120 
C     2.1913559   -3.0478883   -0.9488124 
C     1.7909205   -3.5710569    1.3363914 
C     1.5853237   -4.0332956   -0.0725624 
