60 

C    -4.3933126    0.5193014   -0.0460155 
C    -4.0668064    0.9361827    1.2077398 
C    -3.7915418   -0.2877577    2.0187561 
C    -4.2579302   -0.9814718   -0.0874521 
C    -3.5965752   -1.4004192    1.1105432 
C    -3.7473224   -1.2966131   -1.3127811 
C    -3.7234266    1.0592362   -1.1940026 
C    -3.5886189   -0.0417860   -2.1029839 
C    -2.5842150    1.9457710   -1.0000744 
C    -2.9709449    1.8754180    1.4447157 
C    -2.1118391    2.2809941    0.3626178 
C    -2.8232676    0.0358388    2.9154614 
C    -2.3645923    1.4440266    2.6461271 
C    -1.6641471   -0.7637541    3.0623998 
C    -2.2941909   -2.0440217    1.0290955 
C    -1.3297417   -1.7873918    2.0965281 
C    -2.5376987   -2.0492722   -1.4543125 
C    -1.7444140   -2.3845219   -0.2986645 
C    -2.4876195   -0.1940630   -2.9312144 
C    -1.8923063   -1.5148962   -2.6348749 
C    -1.6123320    1.9262298   -2.0265473 
C    -1.6019092    0.8970589   -3.0624399 
C    -0.2491524    2.3282295   -1.7998665 
C    -0.6581271    2.4446620    0.6232142 
C     0.2855652    2.5337742   -0.4943904 
C    -0.9993274    1.5015880    2.8709947 
C    -0.6410449    0.1888798    3.4196695 
C    -0.0948666    2.0850904    1.9161663 
C     0.6410449   -0.1888798    3.4196695 
C     0.0948666   -2.0850904    1.9161663 
C     0.9993274   -1.5015880    2.8709947 
C    -0.2855652   -2.5337742   -0.4943904 
C     0.6581271   -2.4446620    0.6232142 
C    -0.5529637   -1.6933137   -2.8247922 
C     0.2491524   -2.3282295   -1.7998665 
C    -0.2549271    0.6615225   -3.4536172 
C     0.5529637    1.6933137   -2.8247922 
C     0.2549271   -0.6615225   -3.4536172 
C     1.8923063    1.5148962   -2.6348749 
C     1.7444140    2.3845219   -0.2986645 
C     2.5376987    2.0492722   -1.4543125 
C     1.3297417    1.7873918    2.0965281 
C     1.6641471    0.7637541    3.0623998 
C     2.2941909    2.0440217    1.0290955 
C     2.3645923   -1.4440266    2.6461271 
C     2.8232676   -0.0358388    2.9154614 
C     2.1118391   -2.2809941    0.3626178 
C     2.9709449   -1.8754180    1.4447157 
C     1.6123320   -1.9262298   -2.0265473 
C     1.6019092   -0.8970589   -3.0624399 
C     2.4876195    0.1940630   -2.9312144 
C     2.5842150   -1.9457710   -1.0000744 
C     3.7473224    1.2966131   -1.3127811 
C     3.5886189    0.0417860   -2.1029839 
C     3.7234266   -1.0592362   -1.1940026 
C     3.5965752    1.4004192    1.1105432 
C     3.7915418    0.2877577    2.0187561 
C     4.0668064   -0.9361827    1.2077398 
C     4.2579302    0.9814718   -0.0874521 
C     4.3933126   -0.5193014   -0.0460155 
