60 

C    -0.6452807   -4.3071810   -0.1096882 
C    -1.0094917   -3.7849819   -1.3661215 
C    -2.2640930   -3.0476429   -1.1906316 
C    -1.5226163   -3.6264620    0.8911191 
C    -2.5257592   -2.8866668    0.2096036 
C    -0.7028291   -3.0369349    1.8900756 
C     0.6580874   -4.1797611    0.3278258 
C     0.6353982   -3.5193337    1.6636067 
C     1.6333274   -3.4934419   -0.4566145 
C    -0.1146013   -2.9392545   -2.0895980 
C     1.2387107   -2.7732403   -1.6570718 
C    -2.2383382   -1.9061399   -2.0103846 
C    -0.8923692   -1.7650023   -2.5402683 
C    -2.9371038   -0.7807873   -1.5819347 
C    -2.9289110   -1.6153073    0.7302666 
C    -3.4268279   -0.6794894   -0.2235641 
C    -0.9315767   -1.6662858    2.2899052 
C    -2.1903665   -1.0610616    1.8718428 
C     0.2206065   -0.8123894    2.5813643 
C     1.7137661   -2.6636936    1.7496665 
C     2.4799463   -2.8119947    0.4912799 
C     1.5603940   -1.3313945    2.3170127 
C     3.2797038   -1.7862922    0.0857230 
C     1.9000605   -1.5004912   -1.9636947 
C     3.0675801   -1.1624584   -1.2248633 
C    -0.3333097   -0.4870872   -2.6948030 
C     1.1262206   -0.3772643   -2.5559873 
C    -2.5136788    0.5253379   -1.9875214 
C    -1.2036388    0.7048133   -2.5113010 
C    -3.5714299    0.7160140    0.0783618 
C    -3.1129427    1.4853299   -1.0739841 
C    -2.3759694    0.3041458    2.1575229 
C    -3.2346074    1.1646645    1.3667017 
C     0.0494756    0.6316450    2.6778650 
C    -1.2854852    1.1342598    2.6675329 
C     1.1218056    1.5625390    2.3151086 
C     2.6058467   -0.4241851    2.0431733 
C     3.5864881   -0.7427119    1.0223674 
C     2.3898404    1.0146502    2.0205484 
C     3.5284768    0.1963538   -1.1017621 
C     3.8357850    0.4442197    0.2986125 
C     3.2189126    1.5564529    0.9736922 
C     1.6739933    0.9194561   -2.5257561 
C     2.9032283    1.2111986   -1.8225380 
C    -0.6047766    2.0215297   -2.3235225 
C     0.8165551    2.1140344   -2.4163305 
C    -2.5396337    2.7408778   -0.8978971 
C    -1.2791281    3.0243208   -1.5465234 
C    -2.7680105    2.5071713    1.5383689 
C    -1.5712419    2.4897234    2.3734113 
C    -2.5033078    3.3212618    0.4316334 
C     0.7814084    2.8852172    1.7195990 
C    -0.5063546    3.8689316   -0.6255032 
C    -0.5814781    3.3314869    1.7758946 
C    -1.1967263    3.9223724    0.6107812 
C     2.7606063    2.6371368    0.2073618 
C     2.7507108    2.5049019   -1.2136193 
C     1.5286369    3.1023532   -1.6782175 
C     1.5634930    3.3485593    0.6170277 
C     0.8828194    3.7779780   -0.6051545 
