60 

C     0.3609256   -5.3334860   -0.3093838 
C    -0.4772987   -5.3034957    0.8345513 
C    -1.7493831   -4.8026660    0.4472896 
C    -0.3794956   -4.6365470   -1.4244666 
C    -1.6880558   -4.3574701   -0.9587698 
C     0.4349385   -3.5816434   -1.9483869 
C     1.4925297   -4.5271075   -0.0516757 
C     1.6821258   -3.6289699   -1.1656384 
C     0.1000072   -4.3284725    1.7909510 
C     1.3579839   -3.8870094    1.2823058 
C    -2.0352883   -3.6332835    1.2271037 
C    -0.8801036   -3.3082565    2.0642679 
C    -2.1257538   -2.9955039   -1.0147541 
C    -2.4656460   -2.5955430    0.3560872 
C    -0.0950837   -2.2726121   -2.2538539 
C    -1.4441098   -2.0063378   -1.7923240 
C     0.8180449   -1.1140620   -2.3267367 
C     2.3695762   -2.4695634   -0.9502484 
C     2.0990272   -1.2924559   -1.7366686 
C     1.7800094   -2.5365365    1.4580598 
C     2.6113340   -1.9939294    0.4163188 
C    -0.5003903   -1.9414510    2.2325496 
C     0.8957241   -1.5563760    2.1222989 
C    -2.3262064   -1.2640140    0.7467611 
C    -1.4433625   -0.9074985    1.8366975 
C    -1.8068349   -0.6368304   -1.5436073 
C    -2.4179839   -0.2886527   -0.2970935 
C     0.3193804    0.2589800   -2.4122836 
C    -1.0918118    0.4473355   -2.1902120 
C     1.1675697    1.4332039   -2.1468977 
C     2.6628964   -0.1839489   -1.0493726 
C     2.8344137   -0.6175135    0.3313924 
C     2.3441353    1.1448956   -1.3486093 
C     1.2248652   -0.1543197    2.1119619 
C     2.3805704    0.2792784    1.3473248 
C    -1.1332114    0.4732760    2.0025949 
C     0.2127922    0.8781904    2.3187715 
C    -2.5583362    1.0649763    0.0961003 
C    -2.0212610    1.4559257    1.3850661 
C    -1.6004603    1.7412734   -2.0104516 
C    -2.5652784    2.0221115   -0.9567994 
C     0.6237986    2.7924628   -2.1054198 
C    -0.8069973    2.9476113   -2.1924372 
C     1.3196574    3.8322084   -1.3299919 
C     2.7323424    2.0666554   -0.3312753 
C     2.5629350    1.6275201    1.0596108 
C     2.3234613    3.3905433   -0.3982909 
C     0.5537263    2.3005594    2.2743096 
C     1.8466353    2.6735765    1.7466608 
C     1.9774229    3.8635416    0.9495907 
C    -1.7933121    2.8249970    1.6180276 
C    -0.5098441    3.2718370    2.1172459 
C    -2.5104637    3.3900064   -0.6735565 
C    -1.4921845    4.0132031   -1.5240864 
C    -2.2734931    3.8331610    0.6648872 
C     0.5963698    4.8762826   -0.6496002 
C     0.9469361    4.7716628    0.8055762 
C    -0.2734434    4.5858094    1.5201070 
C    -0.8036335    4.9702894   -0.7182708 
C    -1.3634074    4.9241818    0.6466929 
