60 

C     0.7258847   -4.5563562    0.2340867 
C     0.0633522   -4.0971131    1.4521749 
C    -1.2791615   -3.8809872    1.1364376 
C    -0.1574299   -4.3156722   -0.8978404 
C    -1.4113201   -4.0094078   -0.3709416 
C     0.4627535   -3.3470212   -1.7830015 
C     1.8881272   -3.8004016    0.0478428 
C     1.8202783   -3.1898338   -1.2690890 
C     0.8119715   -2.9764164    1.9701393 
C     2.0298183   -2.8891131    1.1630797 
C     0.1647847   -1.7518336    2.3600690 
C    -1.9521946   -2.7168349    1.5191032 
C    -1.2843720   -1.6244934    2.2005284 
C    -2.1515788   -2.9149045   -0.8329271 
C    -2.7593388   -2.3413459    0.3619796 
C    -0.2370003   -2.1667706   -2.2272046 
C    -1.6367272   -1.9810704   -1.8136209 
C     0.5323442   -0.9545967   -2.5635231 
C     2.4886588   -2.0098024   -1.4578383 
C     1.9320516   -0.9598613   -2.2858152 
C     2.6796902   -1.6612627    0.9851653 
C     3.1406147   -1.3482895   -0.3461897 
C     0.9598898   -0.5285764    2.4129233 
C     2.2904744   -0.5409220    1.8242947 
C     0.3000830    0.7614686    2.6330600 
C    -1.9049073   -0.3064590    2.1415959 
C    -1.1324821    0.9047133    2.3815993 
C    -3.3395476   -1.1395575    0.3010454 
C    -3.1230375   -0.1730937    1.3730194 
C    -2.2647566   -0.6732885   -1.8908693 
C    -3.3537182   -0.4110887   -0.9614066 
C    -0.1141888    0.3559698   -2.6924329 
C    -1.5454512    0.4919698   -2.4214936 
C     0.7061659    1.5331828   -2.6203414 
C     2.6567570    0.2429759   -1.9825938 
C     3.3854311    0.0006645   -0.7459356 
C     2.0779192    1.4792979   -2.1907250 
C     2.9499118    0.6932205    1.5614223 
C     3.4595075    0.9986259    0.2106973 
C     1.1165117    1.9411251    2.6037702 
C     2.4457173    1.8766963    2.0905827 
C     0.5792790    3.1868890    2.1193606 
C    -1.6442484    2.1984083    1.8849736 
C    -0.7130267    3.2707166    1.6357781 
C    -3.5442969    1.0526842    0.8517139 
C    -3.7346777    0.8881496   -0.6187390 
C    -2.8177321    2.2406941    1.0672729 
C    -2.0558023    1.8114937   -2.1447608 
C    -3.1653774    1.9906394   -1.2444150 
C    -2.7489367    2.9204922   -0.2199512 
C     0.1940265    2.8000559   -2.1445911 
C    -0.6326099    3.9212904    0.2956792 
C    -1.1558677    2.9302386   -1.9038680 
C    -1.5806499    3.5812527   -0.6573625 
C     2.3677883    2.6079483   -1.3064563 
C     3.1018844    2.3668984   -0.1153239 
C     2.6371193    2.9673254    1.1036877 
C     1.5174324    3.7701224    1.1291238 
C     1.1899489    3.4435450   -1.2806259 
C     0.7642605    4.0376195   -0.0623240 
