60 

C     0.1982938   -4.4037599    0.0248821 
C     1.3360075   -3.9545127    0.6759633 
C     2.1841219   -3.2528946   -0.2986128 
C     0.3413029   -3.9738439   -1.4062077 
C     1.5128094   -3.1434088   -1.5450512 
C    -0.8797655   -3.4956327   -1.8022683 
C    -1.1119319   -4.0223415    0.4810371 
C    -1.8455740   -3.6053435   -0.6974530 
C    -1.2076465   -3.2052665    1.6481209 
C     1.2544063   -3.0870065    1.8224589 
C    -0.0023132   -2.7298557    2.3105168 
C     2.7900844   -2.1370100    0.3226255 
C     2.2307700   -2.0191095    1.6499181 
C     3.0965229   -0.9871799   -0.4524914 
C     1.4305685   -1.8288498   -2.1584655 
C     2.4176386   -0.8358014   -1.7486664 
C    -1.0068385   -2.1801429   -2.3881829 
C     0.1302825   -1.3528480   -2.6322134 
C    -2.6077989   -2.4418703   -0.7106933 
C    -2.1914165   -1.5958001   -1.8589524 
C    -2.1467635   -2.1134711    1.6857592 
C    -2.9105812   -1.7644306    0.5266332 
C    -0.2385102   -1.3489715    2.7591721 
C    -1.5901996   -1.0183016    2.4701479 
C     2.0693401   -0.7301069    2.2156935 
C     0.7653815   -0.3413533    2.7591913 
C     3.4092422    0.1630523    0.3016446 
C     2.9095728    0.2663226    1.6520133 
C     3.3870878    1.4981363   -0.2828663 
C     2.2752285    0.4744285   -2.2422647 
C     2.8705525    1.6441950   -1.5836192 
C    -0.1216469    0.0774287   -2.7890052 
C     1.0290219    0.9078172   -2.8448751 
C    -2.4141231   -0.2054640   -1.8730176 
C    -1.4020691    0.6818770   -2.4357242 
C    -3.3520411   -0.4431279    0.4163786 
C    -3.3173327    0.2841256   -0.8654111 
C    -2.0280467    0.3351331    2.3418327 
C    -3.1430540    0.5416629    1.4641765 
C     0.3512682    1.0640694    2.7153472 
C    -1.0505566    1.4102705    2.5343739 
C     2.6162751    1.6387512    1.8872703 
C     2.9926907    2.4306218    0.7285170 
C     1.3493443    2.0401545    2.3473980 
C     1.9963936    3.4154591    0.5053652 
C     1.0090125    3.2463774    1.5733618 
C     2.0495719    2.7737746   -1.8615648 
C     0.9216071    2.3038181   -2.6278679 
C     1.5343529    3.6242150   -0.8269611 
C    -1.4689658    2.1169437   -2.1024761 
C    -0.2757645    2.9003762   -2.1616881 
C     0.1163921    3.8050444   -1.0685091 
C    -3.3915281    1.6415201   -0.5856393 
C    -3.3577873    1.8057055    0.8719935 
C    -2.4795142    2.5843664   -1.1697625 
C    -1.3536848    2.7063678    1.9545945 
C    -0.3127783    3.5355156    1.3578556 
C    -0.7664476    3.9370105    0.0084432 
C    -2.5064565    2.8723331    1.1415208 
C    -2.0940075    3.4908310   -0.1336960 
