60 

C    -4.2848448   -0.2704111    1.0906218 
C    -3.4696224   -1.0542477    1.9677878 
C    -2.7745672   -0.1917997    2.8819036 
C    -3.6976152    1.0541324    1.1886789 
C    -2.7842950    1.1514299    2.2784375 
C    -3.2848177    1.5015208   -0.0996924 
C    -4.0160413   -0.6987507   -0.2321082 
C    -3.6000585    0.4262142   -1.0297131 
C    -2.6767965   -1.9821876    1.2025242 
C    -3.0476383   -1.7739555   -0.1882848 
C    -1.3187329   -2.2646628    1.5794383 
C    -1.6097626   -0.6612691    3.4445618 
C    -0.8802901   -1.7635016    2.8418793 
C    -0.6391149    0.3048979    3.8656101 
C    -1.5322020    1.8559613    2.1382829 
C    -0.5168449    1.5114336    3.0939921 
C    -2.0576508    2.2185738   -0.2682904 
C    -1.1066590    2.3604352    0.8353321 
C    -1.5888680    2.2624027   -1.5960325 
C    -2.8455784    0.2250235   -2.1930151 
C    -2.1101049    1.3821210   -2.6142380 
C    -2.1066887   -1.9407249   -1.2241722 
C    -2.2413449   -1.0897330   -2.4219159 
C    -0.3267640   -2.5007232    0.5305353 
C    -0.7859438   -2.4726906   -0.8594326 
C     1.1066590   -2.3604352    0.8353321 
C     0.5168449   -1.5114336    3.0939921 
C     0.6391149   -0.3048979    3.8656101 
C     1.5322020   -1.8559613    2.1382829 
C     0.8802901    1.7635016    2.8418793 
C     1.6097626    0.6612691    3.4445618 
C     0.3267640    2.5007232    0.5305353 
C     1.3187329    2.2646628    1.5794383 
C    -0.1880419    2.5017836   -1.8998146 
C     0.7859438    2.4726906   -0.8594326 
C    -1.1139818    1.2621157   -3.6183420 
C     0.0968616    1.9893611   -3.1837323 
C    -1.2353511   -1.1752757   -3.4184125 
C    -0.7442040    0.0199388   -4.0923893 
C     0.1880419   -2.5017836   -1.8998146 
C    -0.0968616   -1.9893611   -3.1837323 
C     2.0576508   -2.2185738   -0.2682904 
C     1.5888680   -2.2624027   -1.5960325 
C     3.2848177   -1.5015208   -0.0996924 
C     2.7842950   -1.1514299    2.2784375 
C     2.7745672    0.1917997    2.8819036 
C     3.6976152   -1.0541324    1.1886789 
C     2.6767965    1.9821876    1.2025242 
C     3.4696224    1.0542477    1.9677878 
C     4.2848448    0.2704111    1.0906218 
C     2.1066887    1.9407249   -1.2241722 
C     3.6000585   -0.4262142   -1.0297131 
C     3.0476383    1.7739555   -0.1882848 
C     4.0160413    0.6987507   -0.2321082 
C     1.2353511    1.1752757   -3.4184125 
C     0.7442040   -0.0199388   -4.0923893 
C     1.1139818   -1.2621157   -3.6183420 
C     2.1101049   -1.3821210   -2.6142380 
C     2.2413449    1.0897330   -2.4219159 
C     2.8455784   -0.2250235   -2.1930151 
