60 

C     0.4555488    4.7682077   -0.3398002 
C    -0.7776257    4.5873640    0.3492193 
C    -0.4658599    4.0451015    1.6358878 
C     1.5325744    4.1772573    0.4771204 
C     0.9777834    3.7973520    1.7197234 
C     2.2296133    3.2081853   -0.2969579 
C     0.4056507    4.0242929   -1.5484316 
C     1.5696266    3.1818997   -1.6328040 
C    -1.6444182    3.7965562   -0.5182186 
C    -0.9025297    3.4236182   -1.7244663 
C    -2.4515558    2.8212943    0.0526091 
C    -1.1275822    2.8974178    2.1549961 
C    -2.2285584    2.3881437    1.4544237 
C     1.1603713    2.4756983    2.2110562 
C    -0.1357367    1.9147589    2.5908880 
C     2.6125177    1.9672340    0.2747045 
C     2.0732130    1.5941370    1.5843665 
C     2.9071550    0.8738934   -0.6517507 
C     1.4590939    1.9895928   -2.3148229 
C     2.2819422    0.8649708   -1.9332980 
C    -1.0191800    2.1105796   -2.2857082 
C     0.1793988    1.4660146   -2.7430871 
C    -2.7933305    1.6360107   -0.6782211 
C    -2.0708312    1.2081569   -1.8335770 
C    -2.5605079    1.0088854    1.5642153 
C    -3.1739378    0.6458156    0.3062000 
C    -0.3890294    0.5227218    2.5846337 
C    -1.7074904    0.0412970    2.1842259 
C     1.9667090    0.1920416    1.9386089 
C     0.7395179   -0.3891237    2.4581647 
C     3.2125599   -0.3780071   -0.1238396 
C     2.8877318   -0.6693320    1.2902864 
C     2.9977055   -1.5964746   -0.8495495 
C     1.6715363   -0.3334191   -2.4057211 
C     0.3133873    0.0401212   -2.7861742 
C     1.9959981   -1.6084288   -1.8871771 
C    -1.9951037   -0.2367430   -2.0984049 
C    -0.7554337   -0.8628816   -2.5496937 
C    -3.3099145   -0.6486763   -0.0375986 
C    -2.8861770   -1.0794421   -1.3670143 
C    -1.9179405   -1.3733431    1.8912152 
C    -2.9263452   -1.6855251    0.9092312 
C     0.5164513   -1.8366442    2.3965477 
C    -0.8501577   -2.3546358    2.1218168 
C     2.7920524   -2.0378165    1.4540996 
C     2.9977750   -2.6511012    0.1212880 
C     1.6454300   -2.6555845    2.0487225 
C     2.1829339   -3.7350990   -0.0055079 
C     1.4481393   -3.8758385    1.2898948 
C     0.9789418   -2.6677728   -1.9272661 
C    -0.4184194   -2.2745071   -2.2581844 
C     1.1929846   -3.8102155   -1.0727475 
C    -2.6528379   -2.4496535   -1.2709895 
C    -2.8605604   -2.8754206    0.1479739 
C    -1.4850171   -3.1018785   -1.7598323 
C    -0.9849582   -3.6597494    1.5019174 
C     0.1960974   -4.3336916    1.0198825 
C     0.0721357   -4.4756265   -0.4721759 
C    -1.9507448   -3.8503936    0.4495739 
C    -1.2107924   -4.1615947   -0.8104732 
