60 

C     0.2827719   -4.0339307   -0.9479418 
C     0.9747017   -4.0402979    0.2664317 
C     2.2289657   -3.3275485    0.0863902 
C     1.0497637   -3.2148951   -1.8872113 
C     2.2513439   -2.7621984   -1.2352087 
C     0.1612880   -2.2779103   -2.4424052 
C    -1.0888512   -3.6325858   -0.9965340 
C    -1.2112794   -2.5732205   -1.9756701 
C    -1.7895289   -3.4973973    0.2302599 
C     0.3499144   -3.5359278    1.4734952 
C    -1.0241485   -3.3340092    1.4878983 
C     2.4298689   -2.4825212    1.2030969 
C     1.2195364   -2.5215748    2.0403291 
C     3.1034610   -1.2838603    1.0086996 
C     2.6995571   -1.4294235   -1.4373683 
C     3.3474601   -0.7924621   -0.3258825 
C     0.5779102   -0.9370582   -2.7192172 
C     1.9385797   -0.5609274   -2.3445914 
C    -0.4740676    0.0745275   -2.8702801 
C    -2.1752141   -1.5449652   -1.8632030 
C    -1.8420917   -0.2080779   -2.3904545 
C    -2.8591401   -2.5942291    0.2627244 
C    -3.1162746   -1.6567885   -0.7727167 
C    -1.5678668   -2.1776964    2.1759245 
C    -2.8015951   -1.8375475    1.5136874 
C     0.7163360   -1.3199895    2.6028940 
C    -0.7460073   -1.1254657    2.6576740 
C     2.8047513   -0.1463581    1.8433599 
C     1.6029377   -0.1512609    2.6234215 
C     3.4782307    0.6439168   -0.2290443 
C     3.2369822    1.0436214    1.1414389 
C     2.2648606    0.8263666   -2.3396006 
C     3.0347989    1.4463499   -1.2737466 
C    -0.0644373    1.4287205   -2.9670124 
C     1.3043742    1.7675413   -2.7758695 
C    -0.8398936    2.5212124   -2.4038895 
C    -2.6238371    0.8881252   -1.9545338 
C    -2.1016993    2.2488281   -1.9186475 
C    -3.5884778   -0.4530901   -0.1260424 
C    -3.2495961   -0.5403010    1.3091575 
C    -3.4750384    0.7553566   -0.7635711 
C    -1.3143857    0.2429019    2.6636066 
C    -2.5789873    0.5489878    1.9627324 
C     1.0274434    1.1257955    2.8992834 
C    -0.4280324    1.3170907    2.8737216 
C     2.6281534    2.2739637    1.4139930 
C     1.6322859    2.3074718    2.4136712 
C     2.4184708    2.7522700   -0.9911820 
C     1.3808181    2.9595808   -1.9685843 
C     0.0721091    3.3885302   -1.6495532 
C     2.1765556    3.1420854    0.3190259 
C    -0.6895891    2.6478272    2.3344676 
C     0.5678366    3.2082112    1.9685739 
C    -0.2376484    3.7669307   -0.2884824 
C     0.8477596    3.6873616    0.6762004 
C    -2.5164188    2.8700567   -0.6864004 
C    -3.2974632    1.9258439    0.0353906 
C    -2.7751471    1.8347057    1.3787722 
C    -1.5588731    3.4851809    0.1862440 
C    -1.7742369    2.8641569    1.4922792 
