60 

C    -0.3829929    4.3252888   -0.8070934 
C     0.7197734    4.4237202    0.0144509 
C     0.3244292    3.9555937    1.3840610 
C    -1.5477325    4.0204036    0.0332193 
C    -1.0374636    3.5666891    1.3419511 
C    -2.3739991    3.2087824   -0.7066055 
C    -0.3796049    3.3926555   -1.9457677 
C    -1.6683152    2.8322264   -1.9648052 
C     0.7512715    2.5050234   -2.1592095 
C     1.9129240    3.7720840   -0.3355147 
C     1.9471432    2.7896751   -1.4135578 
C     1.3248773    3.0765679    1.8352731 
C     2.4005931    3.1157766    0.8453330 
C     0.9562219    1.8049585    2.4208200 
C    -1.4444641    2.2885085    1.8529520 
C    -0.4425460    1.3999010    2.4738725 
C    -2.9327696    2.0358123   -0.1661206 
C    -2.5771357    1.6451237    1.1849912 
C    -1.9190917    1.4689212   -2.1922541 
C    -2.8809182    1.0122112   -1.1871577 
C     0.4929822    1.1005688   -2.5203060 
C    -0.8757813    0.5815430   -2.5645203 
C     1.5540504    0.1244271   -2.3572370 
C     2.7858146    1.7060603   -0.9637333 
C     3.0479323    1.9305256    0.4668272 
C     2.6639646    0.4008896   -1.4501256 
C     1.9282009    0.7702419    2.3337582 
C     2.9767947    0.8439084    1.3238398 
C     1.6169299   -0.6158064    2.4962740 
C    -0.7473427   -0.0209721    2.6970580 
C     0.2892266   -1.0620264    2.6908750 
C    -2.8789965    0.3266606    1.4959911 
C    -2.0737455   -0.4555329    2.4030653 
C    -3.0623636   -0.3389762   -0.8912901 
C    -3.3981708   -0.6050270    0.4864216 
C    -1.1738495   -0.8477215   -2.4529237 
C    -2.3307782   -1.3359502   -1.6698172 
C     1.2536561   -1.2385937   -2.6342342 
C    -0.1144148   -1.7330303   -2.6949269 
C     2.0716583   -2.2905531   -2.1451592 
C     3.1743191   -0.7005621   -0.6022458 
C     3.2095515   -0.4653213    0.8105679 
C     2.5565800   -1.3925433    1.7030804 
C     2.9413695   -2.0389429   -1.0113445 
C     2.2497849   -2.6732080    1.2722516 
C     2.6333443   -3.0453393   -0.0517048 
C    -0.0154519   -2.4668673    2.2869420 
C     0.9497643   -3.2359643    1.5761315 
C    -2.3772247   -1.8247804    2.1721115 
C    -3.2604983   -1.9001070    0.9863208 
C    -1.3945069   -2.8221819    2.0495330 
C    -2.2989838   -2.6682590   -1.1651248 
C    -2.7984534   -2.9292832    0.1669109 
C    -1.7504079   -3.6297306    0.8884234 
C    -0.1051950   -3.1045214   -2.1959540 
C     1.2587357   -3.4527636   -1.8900908 
C     1.5823216   -3.9033601   -0.5867048 
C     0.5735236   -4.0541270    0.4034962 
C    -1.1294331   -3.5121165   -1.3497954 
C    -0.7751072   -4.0605794   -0.0214785 
