60 

C     1.8054923    4.2056964   -1.0244200 
C     0.7669051    4.6858381   -0.2326408 
C     0.8981227    4.1563109    1.1266600 
C     2.6151590    3.3439230   -0.1989937 
C     2.0338746    3.2793924    1.1540892 
C     2.7341348    2.1116259   -0.8698725 
C     1.1930155    3.3540465   -2.0695397 
C     1.8149568    2.1030566   -2.0489846 
C    -0.4998981    4.2067565   -0.7486170 
C    -0.2480114    3.3732693   -1.9083673 
C    -0.3778445    3.6558105    1.5248052 
C    -1.2672156    3.6783907    0.3350045 
C    -0.4364438    2.5252774    2.3336770 
C     1.9307451    2.0066755    1.8149855 
C     0.7362961    1.7205323    2.5419211 
C     2.8718128    0.9045668   -0.1756152 
C     2.5611015    0.8312645    1.2320895 
C     2.7575050   -0.2922695   -0.9884065 
C     1.0963599    0.9019241   -2.3493760 
C     1.7499076   -0.3491706   -2.0279046 
C    -0.9940605    2.1846825   -2.0641705 
C    -0.3333694    0.9470716   -2.4834689 
C    -2.1804858    2.6401243    0.1087856 
C    -2.1796267    2.0276422   -1.2211189 
C    -1.5726558    1.6274030    2.2644917 
C    -2.5330843    1.7505848    1.2321743 
C     0.2788737    0.3609091    2.7753946 
C    -1.1542732    0.3131312    2.6756074 
C     2.2954657   -0.4873604    1.7584677 
C     1.0611801   -0.7654617    2.4795589 
C     3.1673725   -1.4689038   -0.3682270 
C     2.9084462   -1.5750121    1.0920947 
C     2.8873950   -2.7176204   -0.9600490 
C     1.0932820   -1.6146416   -2.2644528 
C     1.7589836   -2.8157893   -1.8392292 
C    -1.0663353   -0.3134040   -2.4946140 
C    -0.3682363   -1.5831924   -2.3734993 
C    -2.9525695    0.8875235   -1.4196592 
C    -2.4548694   -0.2545500   -2.1702968 
C    -3.3418830    0.6176541    0.9908361 
C    -3.8111874    0.3744086   -0.3596443 
C    -1.8349088   -0.8738597    2.2780200 
C    -3.0630603   -0.6747863    1.5725792 
C     0.3937672   -2.0709974    2.3291068 
C    -1.0440367   -2.0789457    2.0680173 
C     2.5177586   -2.8995280    1.3593734 
C     2.7029014   -3.6800001    0.1331247 
C     1.1893325   -3.1678889    1.8792718 
C     0.9782480   -3.9651806   -1.3383977 
C     1.5861616   -4.4461459   -0.0964237 
C     0.6295253   -4.1834445    0.9957065 
C    -1.0821295   -2.6852931   -1.7477984 
C    -1.5159695   -3.0023810    1.0435416 
C    -0.3595873   -3.7148322   -1.0734632 
C    -0.5930092   -3.8735299    0.4084054 
C    -3.1541902   -1.4009216   -1.6486616 
C    -4.0297957   -0.9907119   -0.5531896 
C    -3.5446871   -1.6715105    0.6208346 
C    -2.3908080   -2.4981806   -1.2431880 
C    -2.6298495   -2.6599787    0.2336651 
