60 

C    -0.8274829    4.0839323    0.6166405 
C    -2.0126619    3.5458819    0.1946780 
C    -1.8910156    3.2081128   -1.2495331 
C     0.0604552    4.1804891   -0.5676075 
C    -0.5450102    3.4100017   -1.6450911 
C     1.3303718    3.8949841   -0.1319998 
C    -0.0899423    3.4322200    1.6813382 
C     1.2753038    3.4900669    1.2942729 
C    -0.5870192    2.2150592    2.2754083 
C    -2.6133177    2.4321250    0.8471313 
C    -1.9271098    1.7391421    1.9036690 
C    -2.5680650    2.0157584   -1.4704451 
C    -3.2276769    1.6521617   -0.2025025 
C    -1.9599161    0.9709548   -2.2615301 
C     0.1800796    2.3082671   -2.2450131 
C    -0.5512398    1.0774922   -2.5998262 
C     2.1530589    2.9675376   -0.8222409 
C     1.6086585    2.2174954   -1.9297867 
C     2.1673420    2.4175297    1.4609059 
C     2.8929976    2.2459377    0.2052986 
C     0.4126809    1.2239418    2.6988412 
C     1.7938888    1.2702559    2.2241319 
C    -0.0725812   -0.0458566    3.1169989 
C    -2.2843517    0.3167783    2.0942163 
C    -1.3789305   -0.5107283    2.7928301 
C    -3.5998054    0.3481106    0.0041990 
C    -3.1860087   -0.3433163    1.1969836 
C    -2.5751170   -0.3177600   -2.1312082 
C    -3.5265953   -0.5586571   -1.1014717 
C    -1.8449525   -1.5545760   -2.3587824 
C     0.1816056   -0.1869841   -2.8455886 
C    -0.4796713   -1.5111432   -2.7148479 
C     2.2839842    0.9980870   -2.2278886 
C     1.5860311   -0.1683036   -2.7330054 
C     3.4957716    1.0441936   -0.0893611 
C     3.3694424    0.5505890   -1.4166637 
C     2.5269644    0.0147604    1.9529991 
C     3.3628844   -0.0858444    0.8152702 
C     0.7882171   -1.1965974    3.1505355 
C     1.9841242   -1.2252251    2.4342465 
C    -1.2832143   -1.9722493    2.5312261 
C     0.0210887   -2.3825444    2.8353516 
C    -3.0067680   -1.7455370    0.8215658 
C    -3.2781979   -1.8659907   -0.5737559 
C    -2.3563157   -2.5478243   -1.4172731 
C    -1.9968538   -2.5687114    1.4321410 
C    -1.4915179   -3.4824278   -0.8427176 
C    -1.3048968   -3.5220843    0.6204989 
C     0.3010634   -2.6761625   -2.3378854 
C    -0.2304462   -3.6432155   -1.4440769 
C     2.3243723   -1.3470128   -2.2573434 
C     3.3357214   -0.8788092   -1.3521685 
C     3.3499868   -1.3060511   -0.0005949 
C     1.6907039   -2.5283231   -1.9768360 
C     2.0227887   -2.4838284    1.6617036 
C     0.7816710   -3.1895852    1.9252867 
C     0.1020024   -3.8299815    0.8706095 
C     0.7578437   -3.9058421   -0.3984615 
C     2.6151930   -2.4827174    0.3723186 
C     1.9403847   -3.2079760   -0.6857901 
