60 

C     2.5930310   -3.4770234   -0.1553820 
C     1.5695843   -3.7657857    0.8108568 
C     0.3569773   -4.1185793    0.1213722 
C     1.9447149   -3.3111575   -1.4178558 
C     0.5786665   -3.7697951   -1.3037241 
C     2.2418987   -1.9944818   -1.9143695 
C     3.2426758   -2.2612452    0.1918439 
C     3.1198194   -1.3716431   -0.9254691 
C     1.5729195   -2.7188252    1.7967240 
C     2.6403298   -1.7945285    1.4141790 
C     0.3460456   -2.2116158    2.3092112 
C    -0.8417979   -3.7918368    0.7218881 
C    -0.8363845   -2.9476777    1.9277864 
C    -1.9906725   -3.3682446   -0.0878131 
C    -0.4022482   -3.0515586   -1.9663968 
C    -1.7461984   -2.9213290   -1.4012910 
C     1.2202305   -1.1995683   -2.5112576 
C    -0.0797296   -1.7959816   -2.6345385 
C     1.3306307    0.2601718   -2.4642756 
C     3.0918056    0.0088716   -0.7142121 
C     2.4374032    0.8476432   -1.7116671 
C     2.5255943   -0.4223340    1.6651648 
C     3.1036991    0.4809478    0.6682395 
C     0.2250459   -0.7853259    2.6468824 
C     1.3917632    0.0645003    2.4547460 
C    -1.0843427   -0.1367476    2.6723849 
C    -2.0655584   -2.2837861    1.9670957 
C    -2.8167572   -2.5568650    0.7368582 
C    -2.2228422   -0.9255856    2.3205982 
C    -3.4167667   -1.3607887    0.3192843 
C    -3.2310626   -0.3892259    1.4171102 
C    -2.2956475   -1.6699749   -1.8394819 
C    -1.2467096   -0.9820178   -2.5827212 
C    -3.1996081   -0.9076772   -1.0399770 
C     0.1495530    1.0691452   -2.7040606 
C    -1.1686974    0.4459697   -2.6573994 
C     0.2166867    2.4747096   -2.3899294 
C     2.4680448    2.2496281   -1.4699777 
C     1.3871121    3.0582611   -1.9052481 
C     3.0125752    1.8645280    0.9039112 
C     2.8830501    2.7599997   -0.1864791 
C     1.2476235    1.4765271    2.5788069 
C     2.1917151    2.3578155    1.9855439 
C    -1.2087120    1.3274988    2.4958938 
C    -0.0442504    2.1167497    2.5382684 
C    -3.2773616    0.9580240    1.1618814 
C    -2.3207467    1.8606853    1.7652667 
C    -3.2397388    0.4963919   -1.2787619 
C    -2.2865311    1.1605780   -2.1358500 
C    -3.5219723    1.3988664   -0.1916055 
C    -0.9005102    3.1475421   -1.7202719 
C    -2.1000672    2.9412664    0.8237113 
C    -2.1142423    2.5233890   -1.6175878 
C    -2.8335188    2.6198189   -0.3759986 
C     1.0406781    4.0148342   -0.8150077 
C     1.9594595    3.8297144    0.2247785 
C     1.5048812    3.5509259    1.5445441 
C     0.1074369    3.3585993    1.7783652 
C    -0.3516301    3.9236906   -0.5889513 
C    -0.8573466    3.6439123    0.7443641 
