60 

C    -1.3043431   -4.1763970    0.4339307 
C    -0.1148707   -3.9293342    1.1992409 
C    -0.3316316   -2.8544693    2.1206076 
C    -2.2728397   -3.2165969    0.8234864 
C    -1.6967869   -2.4042811    1.8741079 
C    -2.6882911   -2.4680301   -0.3329289 
C    -0.9262880   -3.8437198   -0.9155916 
C    -1.7964894   -2.8411516   -1.4275304 
C     1.0252603   -3.8596330    0.3241924 
C     0.4958539   -3.6495601   -1.0348743 
C     2.1085411   -3.1167971    0.7462284 
C     0.7065333   -1.8996102    2.3923785 
C     1.9893741   -2.1536850    1.8307916 
C     0.3309626   -0.5256725    2.7366126 
C    -2.0508555   -1.0496697    2.0462599 
C    -1.0898828   -0.1805963    2.7389610 
C    -3.1557965   -1.1407886   -0.1881694 
C    -3.0025769   -0.4664117    1.1050986 
C    -3.1129237   -0.3511833   -1.3626794 
C    -1.3142599   -1.8349040   -2.3091026 
C    -2.1925342   -0.7119551   -2.4275969 
C     1.0215960   -2.5959606   -1.8514687 
C     0.1184667   -1.6559680   -2.5259557 
C     2.9129274   -2.5003122   -0.2653201 
C     2.3443818   -2.1341901   -1.5054661 
C     2.8857825   -1.0510062    1.5150600 
C     3.5489937   -1.3335137    0.2915692 
C     1.3143076    0.5450479    2.6004471 
C     2.5610120    0.3044102    1.8730445 
C     0.8609005    1.9093951    2.6781013 
C    -1.4690822    1.1850848    2.8972482 
C    -0.4766152    2.2084970    2.9461684 
C    -3.1866920    0.9388602    1.1374786 
C    -2.5586619    1.7055607    2.1308382 
C    -3.1927898    1.1068370   -1.3144289 
C    -3.2057138    1.7445634   -0.0868342 
C    -1.7147242    0.4865618   -2.9827084 
C    -2.3431227    1.6324865   -2.3277640 
C     0.6104145   -0.3167685   -2.8838024 
C    -0.3395131    0.7186849   -3.1496317 
C     2.8021389   -0.7783256   -1.8144739 
C     3.6341605   -0.3316769   -0.7082287 
C     1.9572628    0.1322036   -2.4920974 
C     3.1085300    1.3351910    1.0456986 
C     3.5857353    0.9982219   -0.2910584 
C     1.3577914    2.9210438    1.7380119 
C     2.4465051    2.6313807    0.9443665 
C    -0.8893971    3.3047252    2.0518817 
C    -2.1401327    2.9907441    1.5467568 
C    -2.3787044    2.9378070    0.1395017 
C     0.2010829    3.6199705    1.1864157 
C    -1.3630247    2.5976612   -2.0544076 
C    -0.1353260    2.1112470   -2.6961700 
C    -1.3239747    3.2830083   -0.7773637 
C    -0.0022886    3.6577373   -0.2387688 
C     2.1876625    1.5432326   -2.2416716 
C     3.0316705    1.9459258   -1.1913519 
C     2.3821271    3.0106499   -0.4316462 
C     1.0764943    2.5033727   -2.2269083 
C     1.1636636    3.3620563   -1.0384846 
