60 

C     2.4523118   -3.3464800   -0.6342174 
C     1.2815894   -3.6236830   -1.3030130 
C     0.2691935   -4.0872084   -0.3300778 
C     2.1276540   -3.4935694    0.8241761 
C     0.7343115   -3.7706558    0.9841696 
C     2.6991317   -2.4261460    1.4672706 
C     3.0940507   -2.0836732   -0.8074018 
C     3.5113642   -1.6539794    0.5165691 
C     2.5226721   -1.1052070   -1.6973226 
C     0.6307168   -2.6633651   -2.1412536 
C     1.2218159   -1.3826029   -2.3255235 
C    -0.9885257   -3.6964412   -0.7791926 
C    -0.7968211   -2.7685537   -1.8954861 
C    -1.9505199   -3.3912728    0.2056142 
C    -0.0903963   -2.8965217    1.8244689 
C    -1.4648398   -2.8776085    1.5126569 
C     1.9093783   -1.4888079    2.2520490 
C     0.4827445   -1.6681079    2.4033603 
C     3.3962893   -0.3262940    0.8711495 
C     2.4663318   -0.2144439    2.0142223 
C     2.8960980    0.2816909   -1.4649212 
C     3.3659504    0.6812515   -0.1338999 
C     2.2385798    1.2787077   -2.2293828 
C     0.3070652   -0.2672501   -2.6087053 
C     0.8757794    1.0114222   -2.6788524 
C    -1.7088851   -1.6937314   -2.0759167 
C    -1.1556393   -0.3767546   -2.4186701 
C    -3.0579188   -2.6585840   -0.1814277 
C    -2.9631003   -1.8017185   -1.3599933 
C    -2.3223961   -1.7878921    1.8822068 
C    -3.4272957   -1.7924472    0.9350269 
C    -0.3367209   -0.4730399    2.5805323 
C    -1.7831792   -0.5446760    2.3420372 
C     1.7423043    0.9778164    2.2267773 
C     0.3215343    0.8556057    2.5989233 
C     3.0849830    1.9763838    0.3527071 
C     2.2505354    2.1289959    1.5738940 
C     2.2864953    2.6407483   -1.8320656 
C     2.7275051    3.0066845   -0.5444135 
C     0.0926043    2.2274251   -2.4779676 
C     0.9619707    3.2343029   -2.0128800 
C    -1.9195141    0.8197432   -2.1089515 
C    -1.2639123    2.1342250   -2.0202998 
C    -3.6447061   -0.6070370   -1.0380959 
C    -3.9113251   -0.6107167    0.4244728 
C    -3.1366891    0.6538075   -1.3601212 
C    -2.5205370    0.6844621    2.0044129 
C    -3.5163019    0.6322902    0.9577038 
C    -3.3491251    1.5157259   -0.1864461 
C    -0.4544577    2.0296010    2.4811847 
C    -1.8659065    1.9355294    2.1401672 
C     1.4141463    3.2762362    1.3775806 
C     1.6852817    3.8263246    0.0802813 
C     0.6188276    4.0128505   -0.8508804 
C     0.0892429    3.2471371    1.8695975 
C    -1.6884254    3.1017322   -1.0541117 
C    -2.6655270    2.6925647   -0.0500318 
C    -2.1334742    3.0002534    1.2362096 
C    -0.7102680    3.9402120   -0.3751572 
C    -0.9320513    3.7747393    1.0372577 
