60 

C     0.4689894   -5.1431682   -0.3382803 
C     1.5533003   -4.5054589   -0.9715934 
C     2.2221810   -3.6336990   -0.0324091 
C     0.4474553   -4.6156123    1.0468714 
C     1.5305303   -3.6514375    1.2263638 
C    -0.8448239   -4.1889828    1.3623371 
C    -0.7257229   -4.6208301   -0.9516465 
C    -1.6111947   -4.2042883    0.0779814 
C     1.0780939   -3.6073534   -2.0082902 
C    -0.3473741   -3.6095909   -1.9756086 
C     2.5357829   -2.3789003   -0.6690344 
C     1.7664271   -2.3431074   -1.8999402 
C     2.6326862   -1.2258947    0.1023989 
C     1.3187829   -2.4007106    1.8913029 
C     2.1523017   -1.2745236    1.4780374 
C    -1.0762101   -2.9324246    1.9777553 
C    -0.0121785   -2.0609531    2.3985017 
C    -2.2877269   -2.9938119   -0.0145038 
C    -2.1577567   -2.2837529    1.2650719 
C    -1.0430572   -2.3634976   -2.0809715 
C    -2.1873989   -2.1585108   -1.1985122 
C     1.1238452   -1.1421238   -2.2437101 
C    -0.3078617   -1.1465163   -2.4592939 
C     2.5407799    0.0414420   -0.5975471 
C     1.7527118    0.0898588   -1.7830818 
C     2.7402226    1.2616039    0.1554153 
C     1.9284153   -0.0370135    2.0848495 
C     2.4337620    1.2117407    1.5495074 
C    -0.3562431   -0.6791787    2.6816268 
C     0.7081181    0.2475454    2.7968238 
C    -2.4558020   -0.9250159    1.4029881 
C    -1.6532165   -0.1147269    2.3047706 
C    -2.6874321   -0.8701819   -1.0440902 
C    -3.0297217   -0.2959168    0.2541554 
C    -0.9615940    0.1438587   -2.4593844 
C    -2.2496988    0.2247248   -1.8609195 
C     1.2195056    1.3606497   -2.2420448 
C    -0.1978752    1.3924544   -2.5832987 
C     2.5893691    2.4905259   -0.5213429 
C     1.8707611    2.5403159   -1.7950378 
C     2.2381727    3.6799316    0.2164324 
C     1.6855781    2.2932733    2.1375835 
C     0.5316877    1.6762186    2.7870219 
C     1.5650506    3.5217918    1.4869061 
C    -1.8005527    1.2940362    2.2283226 
C    -0.7329426    2.2115025    2.5496178 
C    -3.0699410    1.1133067    0.1279221 
C    -2.6998396    1.4468018   -1.2430059 
C    -2.5604217    1.9270502    1.1585569 
C    -0.8828209    2.6369560   -2.3729954 
C    -2.0712744    2.6310733   -1.5234939 
C     1.2099448    3.8213325   -1.8576013 
C     1.4752868    4.5369044   -0.6178674 
C    -0.1758991    3.8297293   -2.0666800 
C     0.2457487    4.1642988    1.3430682 
C    -0.8840912    3.4436883    1.7681164 
C    -2.0115759    3.2317987    0.8729386 
C    -1.8960993    3.6596930   -0.4830953 
C     0.2234168    4.8126823    0.0362704 
C    -0.8105603    4.4703933   -0.8742349 
