60 

C    -1.3144531    4.3006581   -0.5459197 
C    -2.1901475    3.5526622    0.2649820 
C    -1.5095949    3.1762651    1.4934246 
C    -0.0521263    4.3561637    0.1154823 
C    -0.1506284    3.6731753    1.3942844 
C     0.9561838    3.8978197   -0.7897740 
C    -1.1082966    3.4935665   -1.7468499 
C     0.2725991    3.2570072   -1.9450546 
C    -2.7825049    2.4885020   -0.5203542 
C    -2.0262682    2.3982109   -1.7797853 
C    -3.1801660    1.3367153    0.1211166 
C    -1.8038246    1.9111907    2.1040170 
C    -2.7987768    1.0678350    1.4996432 
C    -0.7357651    1.2545388    2.7943080 
C     0.9490907    2.8720163    1.8723396 
C     0.6264208    1.7095240    2.6431764 
C     2.1062383    3.3066914   -0.2834764 
C     2.1488843    2.8071096    1.0876030 
C     2.7697671    2.3510072   -1.1018503 
C     0.7139628    1.9807626   -2.4318028 
C     2.0615652    1.6152217   -2.1085593 
C    -1.6375369    1.1259135   -2.2720292 
C    -0.2446862    0.9048219   -2.6602517 
C    -3.1783933    0.0935078   -0.5959900 
C    -2.4371753   -0.0167323   -1.8177770 
C    -2.7410555   -0.3528053    1.6222909 
C    -3.1155993   -0.9699919    0.3603754 
C    -0.7158867   -0.1687960    2.9702728 
C    -1.7367349   -1.0021981    2.4216006 
C     1.4832461    0.5443349    2.6924595 
C     0.6661335   -0.6091302    2.9545960 
C     2.9727218    1.6035904    1.0752837 
C     3.4346742    1.4036526   -0.2603243 
C     2.6418457    0.4482065    1.8660257 
C     2.4746860    0.2309370   -2.0234901 
C     3.3674034    0.1192163   -0.8747401 
C     0.2413249   -0.4658859   -2.7648898 
C     1.6089288   -0.8252973   -2.3671695 
C    -2.0297702   -1.3044230   -2.1733214 
C    -0.7230140   -1.5171009   -2.7564258 
C    -2.7247511   -2.2880122    0.0064335 
C    -2.3588461   -2.4884315   -1.3794287 
C    -1.4225823   -2.3539958    2.1195931 
C    -2.0428401   -3.0668437    1.0121391 
C     1.0137128   -1.9092911    2.5154894 
C    -0.0571789   -2.8525043    2.2756828 
C     2.9498485   -0.8500749    1.3399039 
C     3.2846128   -0.9981736   -0.0678080 
C     2.1963973   -2.0223205    1.6995979 
C     1.8748483   -2.1464236   -1.7589263 
C     2.6590175   -2.1875656   -0.5684083 
C     2.2004696   -2.9469195    0.5820937 
C    -0.3650326   -2.8670033   -2.5062394 
C    -1.4225720   -3.4997068   -1.7301730 
C     0.8999805   -3.1979355   -1.9084578 
C    -1.1339686   -4.0979535    0.6228737 
C     0.1083912   -3.9271296    1.3798856 
C     1.1978239   -3.9167166    0.4372136 
C    -0.8017176   -4.2853763   -0.7327925 
C     0.6611149   -4.1460857   -0.8721184 
