60 

C    -1.9620431   -3.5213734    0.4045755 
C    -0.6817398   -3.9098210    0.7754982 
C     0.1421324   -3.9944094   -0.4421201 
C    -1.9380002   -3.2231930   -1.0309260 
C    -0.6146135   -3.4198145   -1.5224097 
C    -2.6493950   -2.0159026   -1.2450403 
C    -2.5858523   -2.4306011    1.0615809 
C    -3.2541413   -1.6463146    0.0205459 
C    -1.8959847   -1.7306580    2.1191746 
C     0.0669968   -3.2064419    1.7663116 
C    -0.4989667   -2.0470898    2.4174539 
C     1.4412371   -3.5680984   -0.1374115 
C     1.4404976   -3.1744046    1.2859841 
C     2.1094897   -2.7441546   -1.0640715 
C    -0.0243362   -2.4012662   -2.3440026 
C     1.3832393   -2.1933238   -2.1784616 
C    -2.1437556   -1.0020411   -2.1266433 
C    -0.8506638   -1.2487922   -2.7529925 
C    -2.5905179    0.3905829   -1.8797749 
C    -3.6060545   -0.3383605    0.2738109 
C    -3.3036239    0.6998702   -0.6996521 
C    -2.3498604   -0.3968266    2.3765315 
C    -3.3575764    0.1917854    1.5686294 
C    -1.4437092    0.6627465    2.8248482 
C     0.4081354   -0.9701411    2.8408961 
C    -0.0667299    0.4290122    2.9777613 
C     2.2901829   -2.1928051    1.7139928 
C     1.8011831   -1.1489253    2.6061553 
C     3.0585357   -1.7405164   -0.6046501 
C     3.2394536   -1.5620355    0.7773895 
C     1.9952447   -0.9048063   -2.4639932 
C     2.9982658   -0.5840745   -1.4671513 
C    -0.1585598   -0.1150070   -3.2763537 
C     1.2604548    0.0764937   -3.0816577 
C    -1.8451444    1.4821279   -2.4550835 
C    -0.7328105    1.1863411   -3.2492239 
C    -1.5606119    2.7326420   -1.7339436 
C    -3.0189630    1.9395419    0.0399655 
C    -3.0332273    1.5880956    1.4061158 
C    -1.9373284    1.9206678    2.2671036 
C    -2.0699403    2.9178663   -0.4233276 
C    -1.0814672    2.9352847    1.8883366 
C    -1.2057957    3.5350025    0.5600003 
C     0.8435576    1.5838643    2.7299640 
C     0.3209335    2.8152874    2.2193182 
C     2.6477747   -0.0220375    2.3968250 
C     3.5008940   -0.2620695    1.2465708 
C     2.1969049    1.3076909    2.3712353 
C     3.1305269    0.7579883   -0.9745560 
C     3.4549833    0.8960897    0.4191033 
C     2.8256738    1.9400414    1.2028761 
C     1.5054175    1.4901443   -2.7452957 
C     0.3067618    2.1782756   -2.9908295 
C    -0.2074447    3.1436618   -2.0845535 
C     2.3548439    1.8363799   -1.6266843 
C     0.1062873    3.9339518    0.1911732 
C     1.0423777    3.5469436    1.2198504 
C     2.1865815    3.0003032    0.5855516 
C     0.6607426    3.6247823   -1.0893763 
C     1.9495479    2.9718404   -0.8649434 
