60 

C    -1.2801241    4.2229355   -0.5602404 
C    -2.3276583    3.4080661   -0.0055689 
C    -1.8681302    2.8947486    1.2349554 
C    -0.1657149    4.2336676    0.3425136 
C    -0.4894855    3.4024402    1.4561391 
C     1.0333479    3.9357580   -0.3999222 
C    -0.8314160    3.5668302   -1.7371758 
C     0.6006953    3.3805109   -1.6885267 
C    -2.7118805    2.4311587   -1.0002343 
C    -1.6921467    2.4541255   -2.0402407 
C    -3.2256308    1.2261039   -0.5554108 
C    -2.2519401    1.5896109    1.6869553 
C    -3.1559568    0.8693901    0.8477503 
C    -1.3392822    0.8238126    2.5444746 
C     0.4901069    2.5450117    2.0543996 
C     0.0598493    1.2684792    2.6797382 
C     2.0721937    3.3214172    0.2797891 
C     1.8309449    2.6623724    1.5684329 
C     2.9060103    2.4428623   -0.4612613 
C     1.1664712    2.1748301   -2.1838540 
C     2.4519380    1.8140607   -1.6364230 
C    -1.1562823    1.2267074   -2.5188968 
C     0.2955252    1.0844798   -2.6660709 
C    -2.9934051    0.0275150   -1.2994850 
C    -1.9736597    0.0235975   -2.2954825 
C    -3.2622270   -0.5622032    0.9222456 
C    -3.1834769   -1.1164556   -0.4103930 
C    -1.6479898   -0.5441742    2.7695161 
C    -2.6592624   -1.2396303    1.9785956 
C    -0.6110671   -1.5282783    3.0479207 
C     1.0465447    0.2796474    2.9246490 
C     0.7236067   -1.1226878    3.0098262 
C     2.7473486    1.5310773    1.6552803 
C     3.4450385    1.4143003    0.4250374 
C     2.3602656    0.3621790    2.3199666 
C     2.8810599    0.4264474   -1.5622840 
C     3.4947895    0.1849061   -0.2520145 
C     0.8499126   -0.2490961   -2.8079613 
C     2.1760276   -0.5843320   -2.2103085 
C    -1.4144662   -1.2312579   -2.5961025 
C    -0.0522001   -1.3419348   -2.9899348 
C    -2.5683908   -2.3665757   -0.6584469 
C    -1.8002543   -2.4650060   -1.8706622 
C    -2.2257285   -2.5858386    1.7682557 
C    -0.9612220   -2.7704111    2.4589423 
C    -2.1159654   -3.1476813    0.4789629 
C    -0.0651569   -3.4843344    1.6187292 
C    -0.8289580   -3.8649308    0.4260804 
C     1.6922196   -1.8855521    2.2646778 
C     2.6895488   -0.9309206    1.7895328 
C     3.2107567   -1.0307268    0.4598138 
C     1.3028202   -3.0303791    1.5056825 
C     2.4155226   -1.9183302   -1.6997617 
C     2.7840960   -2.1209825   -0.3302549 
C     1.9432507   -3.2118687    0.2197759 
C     0.3346307   -2.7043027   -2.6722563 
C    -0.7447318   -3.3823673   -1.9765808 
C    -0.1753632   -4.0204374   -0.7887512 
C     1.5212894   -2.9748215   -2.0217836 
C     1.2533625   -3.8135324   -0.8423496 
