60 

C     1.2169991   -4.3396616    0.2838771 
C     1.0231084   -3.9902925   -1.0993492 
C     1.9454297   -2.9449518   -1.4434764 
C     2.1908064   -3.4898855    0.8495452 
C     2.7521809   -2.7268126   -0.2405722 
C     1.5233243   -2.7259078    1.8850895 
C    -0.0413318   -4.1750334    0.9635500 
C     0.1266894   -3.1585206    1.9636381 
C    -0.3851059   -3.8417821   -1.3351709 
C    -1.0677967   -4.0376046   -0.0254976 
C    -0.8088730   -2.7875780   -2.1399549 
C     1.4992097   -1.8005270   -2.1877359 
C     0.1316271   -1.7811919   -2.6028063 
C     2.1435684   -0.5003140   -1.9931987 
C     3.1954145   -1.4581060    0.0347059 
C     3.1016939   -0.4029733   -0.9423298 
C     1.8557436   -1.3712411    2.1292866 
C     2.9313123   -0.8398769    1.3338785 
C     0.8279453   -0.4317793    2.6016964 
C    -0.9084423   -2.2054743    2.2086912 
C    -0.5800412   -0.8192083    2.5742171 
C    -2.1653182   -3.2664524    0.2917908 
C    -2.1547495   -2.4703285    1.5210045 
C    -2.0845015   -2.1199056   -1.8933182 
C    -2.8169447   -2.4443613   -0.7363017 
C    -0.5889639   -0.5431440   -2.7223036 
C    -1.9643314   -0.7451711   -2.3033904 
C     1.4666450    0.7375976   -2.3809101 
C     0.0353936    0.7316042   -2.6579544 
C     2.0347612    1.9761258   -1.9426909 
C     3.3192465    0.8336514   -0.2338477 
C     3.1148356    0.5572261    1.1878487 
C     2.9086519    2.0214035   -0.7705555 
C     1.1606655    0.9507485    2.5955183 
C     2.3389404    1.4501656    1.9240027 
C     0.1700318    2.0005435    2.5274621 
C    -1.5763226    0.2396054    2.4113334 
C    -1.1945208    1.6506261    2.3666645 
C    -3.0623806   -1.4141326    1.3396159 
C    -3.4821694   -1.3874498   -0.0752675 
C    -2.8209046   -0.1083996    1.7730816 
C    -2.6640293    0.3158189   -1.6616399 
C    -3.4576009   -0.0579147   -0.5157223 
C    -3.3071009    0.7505660    0.6927680 
C    -0.8080844    1.8976533   -2.3647413 
C    -2.1177837    1.6625214   -1.7415579 
C     1.2583581    3.1443828   -1.9189638 
C    -0.1497124    3.1534232   -2.1193435 
C     2.4506044    3.1098966    0.0966714 
C     2.0690980    2.7859447    1.4220756 
C     0.7595594    3.1827274    1.9006099 
C     1.5830288    3.9226304   -0.6943640 
C    -0.6696143    4.0999807   -1.1517108 
C    -0.0441885    4.0669600    1.1394794 
C     0.4060032    4.4469054   -0.1920747 
C    -1.9907578    2.5909766    1.5903969 
C    -2.8919051    2.0302141    0.5833206 
C    -2.5249794    2.5818493   -0.7159805 
C    -1.4288865    3.7438129    1.0311078 
C    -1.7835351    3.7504207   -0.4201967 
