60 

C    -0.0099681   -3.8830890    0.9002328 
C     1.2178741   -3.4977372    1.3947178 
C     2.1436982   -3.3073061    0.2467017 
C     0.0830499   -3.8535946   -0.5731018 
C     1.3812294   -3.3785329   -0.9567155 
C    -1.1048223   -3.3086575   -1.0702589 
C    -1.1974323   -3.2041774    1.2817805 
C    -2.0044041   -3.1090747    0.0780383 
C    -1.1420449   -2.0847739    2.1812766 
C     1.3420979   -2.3757266    2.2489316 
C     0.1801991   -1.6353848    2.6487090 
C     2.9945869   -2.2331036    0.5352128 
C     2.5630339   -1.6741730    1.8216920 
C     3.3430852   -1.3519822   -0.5071617 
C     1.4963306   -2.3200246   -1.9310799 
C     2.5977685   -1.4176789   -1.7600572 
C    -1.0608122   -2.3312504   -2.1370297 
C     0.2651101   -1.8160280   -2.5603746 
C    -2.2129078   -1.5081009   -2.2674565 
C    -3.0180574   -2.1830156   -0.0081058 
C    -3.2347367   -1.5369128   -1.2602850 
C    -2.2463369   -1.1128920    2.1066803 
C    -3.2158959   -1.2072305    1.0577292 
C    -2.0526845    0.1894061    2.6754793 
C     0.3876476   -0.2129522    2.9809475 
C    -0.7169618    0.6491936    3.0661660 
C     2.7262935   -0.3309790    2.0530063 
C     1.6630050    0.4171832    2.6930314 
C     3.6320621    0.0245794   -0.2130516 
C     3.3830417    0.5319210    1.0828601 
C     2.5679675   -0.0808523   -2.2932829 
C     3.2494080    0.8221225   -1.3637217 
C     0.2921402   -0.5054020   -3.1004792 
C     1.4369804    0.3596233   -2.9722247 
C    -2.1039543   -0.1155580   -2.6726475 
C    -0.8785698    0.3618624   -3.0726889 
C    -3.6684339   -0.1960560   -0.9914672 
C    -3.7539789   -0.0029301    0.4247069 
C    -2.9474581    0.7070454   -1.8168209 
C    -2.7462692    1.3115742    2.1706091 
C    -3.4303732    1.2554653    0.9182277 
C    -0.6012509    2.0557946    2.7279824 
C    -1.8444115    2.4361502    2.1589577 
C     1.7726157    1.7753262    2.2594231 
C     2.8345348    1.8431557    1.2514829 
C     0.6051425    2.6074662    2.1877289 
C     2.8212990    2.1322247   -1.2088242 
C     2.6667667    2.6896049    0.1374785 
C     0.9775772    1.7352856   -2.8136803 
C    -0.4664572    1.7186183   -2.7686103 
C     1.6935674    2.6272205   -2.0108994 
C    -2.4688563    1.9654254   -1.2990536 
C    -2.8225414    2.2704981    0.0485960 
C    -1.9130402    3.0654063    0.8781516 
C    -1.2201823    2.5251781   -1.8541103 
C     0.4947120    3.5216468    1.0840772 
C     1.5413198    3.5547123    0.1109219 
C     0.9502207    3.5351655   -1.2101490 
C    -0.7598653    3.6284081    0.3493222 
C    -0.4616581    3.4579127   -1.0675210 
