60 

C     0.9584824    4.2653462    1.5067702 
C     1.5857597    4.2821283    0.2130131 
C     0.5568454    4.5279522   -0.7517421 
C    -0.4851806    4.2127188    1.2901626 
C    -0.7689965    4.4713647   -0.0467083 
C    -0.9974888    2.9854164    1.8992657 
C     1.3102553    3.0527289    2.1495457 
C     0.1345184    2.2788977    2.4548324 
C     2.3571150    3.0597912    0.0741587 
C     2.2876244    2.3633574    1.3540140 
C     2.2760288    2.2412006   -1.1187069 
C     0.4438414    3.7137779   -1.8720720 
C     1.3001697    2.5859936   -2.1147117 
C    -1.6290791    3.5735402   -0.7760314 
C    -0.9450925    3.2292363   -1.9809530 
C    -1.9826276    2.2081176    1.2650782 
C    -2.3218792    2.5069829   -0.1255010 
C    -2.1500801    0.8420382    1.7625688 
C     0.1908403    0.8422062    2.5138277 
C    -1.0501247    0.1185102    2.3846390 
C     2.3909657    0.9744879    1.4364898 
C     1.4361429    0.1853470    2.2206651 
C     2.6432607    0.8593817   -1.0111960 
C     2.9491201    0.3131530    0.2869191 
C     2.1120339   -0.1317717   -1.9548916 
C     0.4537746    1.5125528   -2.6035929 
C    -0.9294076    1.9179579   -2.4896823 
C     0.8059503    0.1474715   -2.5075342 
C    -2.6974921    1.3618639   -0.9371724 
C    -1.8887928    0.9704211   -2.0756723 
C    -3.1836910    0.1074882    1.1586123 
C    -3.4143487    0.3442969   -0.2831069 
C    -3.3045965   -1.2825941    1.3935694 
C    -1.0267725   -1.3416320    2.3697814 
C    -2.2123931   -2.0234114    1.9420159 
C     1.4953661   -1.2596225    2.1701037 
C     0.2672330   -2.0362886    2.3027501 
C     3.2265203   -1.0512698    0.4271751 
C     2.6302127   -1.8383338    1.5009355 
C     2.4893161   -1.4729244   -1.8253723 
C     3.3573659   -1.8756456   -0.7334907 
C     1.5376432   -2.5468099   -2.0184902 
C    -0.2331019   -0.8777497   -2.4867725 
C    -1.6129549   -0.4477075   -2.3037488 
C     0.1510703   -2.2573328   -2.1785174 
C    -3.5874276   -0.9119638   -0.9001733 
C    -3.7050706   -1.9080920    0.1475743 
C    -2.5639342   -1.3711713   -1.7982914 
C    -2.0798189   -3.2133636    1.0867285 
C    -0.8206693   -3.1349489   -1.4993184 
C    -2.8814824   -3.0000665   -0.1102389 
C    -2.1430478   -2.6977231   -1.3375777 
C     0.2818171   -3.3659825    1.7404247 
C    -0.8520605   -3.7638179    0.9187974 
C    -0.3181831   -4.0100805   -0.4407182 
C     2.6217828   -3.1932123    1.0351512 
C     3.0818694   -3.2102536   -0.3747354 
C     1.9858171   -3.6640060   -1.1637257 
C     1.4303816   -3.9075861    1.1146569 
C     1.0366700   -4.2603655   -0.2997806 
