60 

C    -0.3369676   -4.2702688   -0.0135393 
C    -1.0325278   -3.8816892   -1.1690963 
C    -2.2583000   -3.2230779   -0.7862640 
C    -1.0929605   -3.8171809    1.1453025 
C    -2.2907388   -3.1703526    0.6644673 
C    -0.1977835   -3.1244451    1.9922745 
C     1.0439835   -3.9243649    0.1616772 
C     1.1605258   -3.2304836    1.4341700 
C     1.7536794   -3.4175511   -0.9478070 
C    -0.3773957   -3.0609742   -2.1736534 
C     0.9939604   -2.8975369   -2.1208245 
C    -2.3709338   -2.0220810   -1.5355560 
C    -1.2189884   -1.8975959   -2.4163686 
C    -2.9429981   -0.8402064   -0.9562760 
C    -2.6817743   -1.9731131    1.2493587 
C    -3.2020221   -0.8828609    0.4434962 
C    -0.6096973   -1.9010072    2.6408267 
C    -1.9079161   -1.3706996    2.3290860 
C     0.3866395   -0.9514814    2.9730670 
C     2.1074489   -2.1799931    1.6308716 
C     1.7540094   -1.0989561    2.5041429 
C     2.7990001   -2.5066172   -0.7165466 
C     2.9988416   -1.8660246    0.5323327 
C     1.5713512   -1.6128492   -2.4967347 
C     2.7633632   -1.4558919   -1.7327347 
C    -0.6795401   -0.6248925   -2.7272913 
C     0.7715026   -0.4707295   -2.7751307 
C    -2.6679352    0.4367806   -1.5886887 
C    -1.5265425    0.5446675   -2.5054526 
C    -3.0357685    1.6044585   -0.8545903 
C    -3.0564028    0.3171643    1.2195216 
C    -2.1583093    0.0416092    2.3328898 
C    -3.0624164    1.5381347    0.5996884 
C     0.0944347    0.4566457    3.0788145 
C    -1.1697502    1.0005524    2.6928352 
C     2.2954990    0.2129562    2.3393640 
C     1.3086658    1.1718222    2.8126623 
C     3.3510501   -0.4817071    0.2583402 
C     3.1509379   -0.2389301   -1.1706341 
C     3.0718548    0.5466613    1.1757088 
C     1.3676154    0.8508770   -2.5132063 
C     2.5566242    0.9657553   -1.6439540 
C    -0.9273377    1.8138408   -2.7075671 
C     0.5247228    1.9658631   -2.6139197 
C    -2.5028880    2.8752125   -1.1826030 
C    -1.4940453    2.9918225   -2.1282158 
C    -2.2516691    2.6444892    1.1180749 
C    -1.2137205    2.3537238    2.0923031 
C    -2.0342557    3.5403879    0.0518626 
C     1.2703105    2.4674147    2.3057932 
C    -0.0056413    3.0902525    1.9609378 
C     2.9484268    1.8813341    0.6363428 
C     2.7011774    2.0975971   -0.8057435 
C     2.2545681    2.8827676    1.3402675 
C     0.8065639    3.2189100   -1.8940550 
C    -0.4203961    3.8331594   -1.5761900 
C    -0.7570873    4.1234418   -0.2018236 
C     0.2402615    3.9545626    0.7949978 
C     1.8589835    3.2398064   -0.9407305 
C     1.5787079    3.7308913    0.3837198 
