60 

C     4.0405337   -0.4830322    1.7699308 
C     4.3855597    0.4205562    0.7269405 
C     4.2902536   -0.2986914   -0.5388025 
C     3.6473751   -1.7329757    1.2406769 
C     3.8061584   -1.6436377   -0.2055028 
C     2.3546839   -2.0367500    1.7859159 
C     2.9431587    0.0642798    2.5541430 
C     1.8951745   -0.9016995    2.6037294 
C     3.6193663    1.6213331    0.9307614 
C     2.6604335    1.3538015    2.0606435 
C     3.1741939    2.3142038   -0.1933572 
C     3.7327638    0.3762589   -1.6423639 
C     3.3695957    1.7484079   -1.5052022 
C     2.6630267   -0.2550626   -2.4498423 
C     2.8222057   -2.2378128   -0.9929865 
C     2.2590282   -1.5370682   -2.1557776 
C     1.3925090   -2.7154811    1.0165873 
C     1.7148821   -2.9225074   -0.3759346 
C    -0.0054207   -2.6093072    1.4034258 
C     0.5334875   -0.5000808    2.5837525 
C    -0.4799417   -1.4774723    2.1898370 
C     1.3182474    1.7966052    2.0122049 
C     0.2305706    0.9120188    2.4406393 
C     1.8502253    2.9188002   -0.1545308 
C     1.0086077    2.7946001    0.9933177 
C     2.1214966    1.9386895   -2.1926852 
C     1.6220786    0.7265515   -2.7450619 
C     1.2419098    2.7669000   -1.4526632 
C     0.2143266    0.4363308   -2.7045121 
C     0.8617867   -1.8864626   -2.2835420 
C     0.6281495   -2.9301963   -1.3168624 
C    -0.1875501   -0.9549624   -2.5739460 
C    -0.9357797   -3.2414262    0.5310163 
C    -0.6390856   -3.2042190   -0.9086024 
C    -2.2935693   -3.0157843    0.6767538 
C    -1.8879072   -1.0991139    2.1753565 
C    -2.8148530   -2.0162662    1.5481700 
C    -1.1635434    1.3216965    2.2753699 
C    -2.2563844    0.3323803    2.2751181 
C    -0.3232707    3.1187440    0.7926807 
C    -1.3817300    2.5859488    1.6409312 
C    -0.1539598    2.6380799   -1.6142395 
C    -0.7337376    1.4749946   -2.2735645 
C    -0.8764967    3.2447583   -0.5470052 
C    -2.1359509    1.1407865   -2.0182901 
C    -1.5658568   -1.3156635   -2.2250826 
C    -1.7607383   -2.5807860   -1.5679236 
C    -2.8586693   -2.7665523   -0.6757611 
C    -2.5886318   -0.2668931   -2.0450165 
C    -3.9914108   -1.5038341    0.8770420 
C    -3.8579235   -1.8431816   -0.5779169 
C    -3.7991875   -0.6153412   -1.3213106 
C    -3.5482540    0.7449960    1.7515932 
C    -4.3217208   -0.1906754    0.9667864 
C    -4.4063594    0.3501953   -0.4331173 
C    -2.6018863    2.8502770    0.9642271 
C    -2.2436659    3.0650550   -0.4640134 
C    -2.9288474    2.1042789   -1.2508575 
C    -3.6506171    1.9750258    1.0201499 
C    -4.0088391    1.6463829   -0.4014262 
