60 

C    -0.0624166   -4.3442106   -0.2467100 
C    -1.3229403   -3.9073323    0.2222732 
C    -1.9246377   -3.0615199   -0.7918591 
C     0.1822863   -3.7827211   -1.5475000 
C    -0.9597511   -2.9778735   -1.8874419 
C     1.4698849   -3.1669854   -1.5242345 
C     0.9582775   -3.8651428    0.6419728 
C     1.9435772   -3.1721504   -0.1197454 
C    -1.1297985   -3.3557935    1.5421120 
C     0.3159411   -3.2136826    1.7678903 
C    -1.9694980   -2.3581423    1.9505328 
C    -2.7008707   -1.9323410   -0.4224237 
C    -2.9266968   -1.7697089    1.0036809 
C    -2.7165381   -0.7293170   -1.2700906 
C    -0.8023329   -1.7458550   -2.5834073 
C    -1.7835077   -0.6725460   -2.3819307 
C     1.6578339   -2.0200420   -2.2824419 
C     0.5413189   -1.3804321   -2.9249300 
C     2.5541429   -0.9758611   -1.8302359 
C     2.5720743   -2.0305806    0.4174149 
C     3.0985934   -1.0162561   -0.5163163 
C     0.8453004   -2.0110873    2.2762897 
C     2.1213122   -1.5531190    1.7287323 
C    -1.4681454   -1.2756626    2.7859076 
C    -0.0831490   -1.0033404    2.8606229 
C    -3.2459179   -0.5097056    1.5100023 
C    -2.3763884   -0.1940908    2.6283934 
C    -3.2198403    0.5494996   -0.7140360 
C    -3.3889747    0.6510808    0.7031034 
C    -2.9284363    1.7931574   -1.3812812 
C    -1.4463575    0.6138923   -2.9434986 
C    -2.0959369    1.7919666   -2.5452407 
C     0.9136401    0.0046252   -3.1081732 
C     2.1393598    0.2784536   -2.4105305 
C    -0.0554141    0.9666642   -3.2060669 
C     2.3346151    1.5311812   -1.7457973 
C     3.5605209    0.2191936   -0.0115856 
C     3.2139659    1.4911139   -0.6368345 
C     2.5966961   -0.3072156    2.1727667 
C     3.5408367    0.4486763    1.4057148 
C     0.3208644    0.4016334    2.9650031 
C     1.7043905    0.6710575    2.8154201 
C    -1.9816977    1.1513319    2.5122954 
C    -2.7815312    1.7533426    1.4447377 
C    -0.6190758    1.4976320    2.7040534 
C    -2.5647265    2.9560098   -0.6286161 
C    -2.3000084    2.8550768    0.7578221 
C    -1.1172267    2.8739011   -2.4480834 
C     0.1787881    2.3164395   -2.6858630 
C     1.2749742    2.5644320   -1.8181727 
C    -1.3838232    3.5521139   -1.2556416 
C    -0.1303036    2.6952198    1.9985289 
C    -0.9354531    3.3087871    1.0076600 
C     0.9965805    3.3532291   -0.5973955 
C    -0.3650890    3.7032023   -0.2800080 
C     3.0798354    2.4578474    0.4314875 
C     3.3826790    1.8490434    1.6713532 
C     2.1825393    1.9722050    2.4643987 
C     1.8352415    3.1882257    0.5258746 
C     1.2704139    2.8724804    1.8300471 
