60 

C     0.4282723   -4.9408044   -1.1332468 
C    -0.3572875   -5.3227067    0.0000000 
C     0.4282723   -4.9408044    1.1332468 
C     1.7020736   -4.2833535   -0.6982345 
C     1.7020736   -4.2833535    0.6982345 
C     1.8188152   -3.0267652   -1.3892763 
C    -0.2659369   -4.0005527   -1.9184787 
C     0.6131436   -2.8923845   -2.2107624 
C    -1.5324409   -4.4569325    0.0000000 
C    -1.5157640   -3.6707616   -1.2115798 
C    -0.2659369   -4.0005527    1.9184787 
C    -1.5157640   -3.6707616    1.2115798 
C     1.8188152   -3.0267652    1.3892763 
C     0.6131436   -2.8923845    2.2107624 
C     2.2590919   -1.8492431   -0.7292504 
C     2.2590919   -1.8492431    0.7292504 
C     2.0189046   -0.5787096   -1.3829180 
C     0.0877015   -1.6319378   -2.4790525 
C     0.9656890   -0.4892373   -2.3464949 
C    -1.9570242   -2.3288982   -1.2267854 
C    -1.3217976   -1.4046193   -2.1720190 
C    -1.9570242   -2.3288982    1.2267854 
C    -2.4259123   -1.6971495    0.0000000 
C     0.0877015   -1.6319378    2.4790525 
C    -1.3217976   -1.4046193    2.1720190 
C     2.0189046   -0.5787096    1.3829180 
C     0.9656890   -0.4892373    2.3464949 
C     2.4704404    0.6436193   -0.7342821 
C     2.4704404    0.6436193    0.7342821 
C     2.3063639    1.8671516   -1.3985841 
C     0.4636749    0.8107268   -2.7133495 
C     1.2913410    1.9532114   -2.4551693 
C    -1.7662765   -0.0897562   -2.2203652 
C    -0.9468169    0.9883231   -2.7402925 
C    -2.7455315   -0.2864155    0.0000000 
C    -2.6027637    0.4707775   -1.1983149 
C    -1.7662765   -0.0897562    2.2203652 
C    -2.6027637    0.4707775    1.1983149 
C     0.4636749    0.8107268    2.7133495 
C    -0.9468169    0.9883231    2.7402925 
C     2.3063639    1.8671516    1.3985841 
C     1.2913410    1.9532114    2.4551693 
C     2.3298243    3.1505767   -0.7091256 
C     2.3298243    3.1505767    0.7091256 
C     0.7420603    3.2432110   -2.4274986 
C     1.4344421    4.0380216   -1.4083667 
C    -1.4976269    2.2299262   -2.2802292 
C    -2.4259257    1.9076409   -1.2100053 
C    -0.6876514    3.3885740   -2.2256589 
C    -2.4259257    1.9076409    1.2100053 
C    -1.4976269    2.2299262    2.2802292 
C    -2.3975402    2.6760731    0.0000000 
C     0.7420603    3.2432110    2.4274986 
C     1.4344421    4.0380216    1.4083667 
C    -0.6876514    3.3885740    2.2256589 
C     0.4701101    4.7892453   -0.7007183 
C    -0.8624786    4.2878509   -1.1462049 
C    -1.6450608    3.9234652    0.0000000 
C     0.4701101    4.7892453    0.7007183 
C    -0.8624786    4.2878509    1.1462049 
