60 

C     0.3020621    4.6318494    0.9654748 
C     1.1129908    4.4486839   -0.2314576 
C     0.2568778    4.2739194   -1.3452283 
C    -1.0650648    4.3696659    0.6209172 
C    -1.1055856    4.1734458   -0.7906583 
C    -1.5453876    3.2786359    1.4455076 
C     0.7021561    3.6225587    1.8824145 
C    -0.4343861    2.8335178    2.2724277 
C     2.1194644    3.4513589    0.0377903 
C     1.8552332    2.9131979    1.3979396 
C     2.4427782    2.5434621   -0.9731210 
C     0.4300026    3.1637663   -2.2251200 
C     1.5874089    2.3787414   -2.1451027 
C    -1.7448182    3.0415897   -1.3579806 
C    -0.8291048    2.4281165   -2.3080741 
C    -2.4276226    2.2955507    0.9199266 
C    -2.5725827    2.1957465   -0.5464631 
C    -2.5073961    1.0805849    1.6546796 
C    -0.2671884    1.4636769    2.6160040 
C    -1.4306972    0.6590388    2.5226697 
C     2.0336443    1.5452267    1.6895214 
C     1.0096238    0.7960213    2.4444676 
C     2.9212835    1.2432526   -0.6120565 
C     2.8393836    0.7891665    0.7380978 
C     1.5565050    0.9605652   -2.4417606 
C     2.5581256    0.3078029   -1.6419512 
C    -0.8734535    1.0344271   -2.5868258 
C     0.3580389    0.2446012   -2.7094370 
C    -2.8579832    0.9333967   -1.0901471 
C    -2.0448051    0.3637459   -2.1454374 
C    -3.0925579   -0.1103556    1.1029033 
C    -3.3008006   -0.1749680   -0.2782627 
C    -1.3829321   -0.7743348    2.5517371 
C    -2.5128200   -1.2608661    1.7870963 
C     1.0580416   -0.6531405    2.5050469 
C    -0.1573004   -1.4876415    2.5785952 
C     2.9783736   -0.5829109    0.9263802 
C     2.2247872   -1.2875247    1.9693693 
C     2.5822810   -1.0833803   -1.4407804 
C     3.1405689   -1.4916521   -0.1791944 
C     0.3406538   -1.2110763   -2.5343188 
C     1.5437140   -1.9023331   -2.0608441 
C    -2.0954138   -1.0604316   -2.0716150 
C    -2.9831142   -1.4016703   -0.9694622 
C    -0.9571212   -1.8757194   -2.3647313 
C    -2.4580969   -2.4933823    1.1813769 
C    -2.7876366   -2.5801339   -0.2524507 
C    -0.1684603   -2.9026140    2.1121670 
C    -1.3527268   -3.3956765    1.4457467 
C     2.2334600   -2.6494045    1.6556412 
C     2.8722384   -2.7879527    0.3172122 
C     1.0894835   -3.4940982    1.7046108 
C     1.4455335   -3.2761585   -1.6186619 
C     2.1584460   -3.7003671   -0.4111249 
C     1.1640882   -4.3149581    0.5073000 
C    -1.0077645   -3.2294913   -1.8632590 
C    -1.9491274   -3.5638759   -0.8042617 
C    -1.2283276   -4.2220611    0.2635702 
C     0.1903849   -3.9211604   -1.5775559 
C     0.0326429   -4.5759735   -0.2392470 
