60 

C     2.4364939   -3.3060117    0.4082789 
C     1.4919567   -3.9296293   -0.4436768 
C     0.2644130   -4.1136765    0.3197211 
C     1.7447960   -3.0168714    1.6569956 
C     0.3922074   -3.4673317    1.5992482 
C     2.0751450   -1.7111720    2.1063064 
C     3.0833824   -2.1026811    0.0270822 
C     2.9855317   -1.1345466    1.1435665 
C     2.8743677   -1.5997085   -1.2653176 
C     1.1208529   -3.3154484   -1.6746333 
C     1.8476287   -2.1939577   -2.1128337 
C    -0.8538229   -3.8360336   -0.5033186 
C    -0.3517244   -3.2600279   -1.7505579 
C    -1.9990045   -3.3062925    0.1046250 
C    -0.6618324   -2.6122895    2.1037422 
C    -1.9176869   -2.6980804    1.4368311 
C     1.0928570   -0.9030017    2.7545184 
C    -0.2971982   -1.3448355    2.7719613 
C     1.3967643    0.4929447    2.7882635 
C     3.0400068    0.2559611    0.9464886 
C     2.3852569    1.0594970    1.9346157 
C     2.8739729   -0.1733363   -1.4888075 
C     3.0935144    0.7730426   -0.4310192 
C     1.1811698   -1.1091106   -2.7830412 
C     1.9172754    0.1137701   -2.5177870 
C    -1.0303343   -2.1711037   -2.3602616 
C    -0.2363405   -1.0670871   -2.9283763 
C    -2.8296474   -2.4714626   -0.6852117 
C    -2.3509426   -1.8580292   -1.8540325 
C    -2.8436691   -1.5756960    1.4501567 
C    -3.4209003   -1.4353213    0.1648928 
C    -1.2844857   -0.3144804    2.8676032 
C    -2.5205982   -0.4026149    2.1353884 
C     0.3760442    1.5081673    2.9961429 
C    -0.9490217    1.0884996    2.9754288 
C     2.0228898    2.4555529    1.6846209 
C     0.7751014    2.7440512    2.3721205 
C     2.6881261    2.1023766   -0.6636553 
C     2.2876168    3.0130732    0.4333872 
C     1.3307701    1.3959086   -2.6336021 
C     1.8811382    2.4462665   -1.8155908 
C    -0.8222880    0.2326273   -3.0241277 
C    -0.0597350    1.4427581   -2.9468145 
C    -2.8369698   -0.4652834   -1.8081294 
C    -3.4476546   -0.1996299   -0.5126367 
C    -2.1141873    0.5248560   -2.4137631 
C    -2.8094433    0.8977309    1.5621738 
C    -1.9164025    1.8487304    2.1971202 
C    -3.1609796    1.0275233    0.1857744 
C    -0.2018452    3.5628917    1.7448785 
C    -1.5449006    3.0192848    1.5649928 
C     1.3686962    3.9694831   -0.0996647 
C     1.0895269    3.5738575   -1.4749218 
C     0.1405194    4.2302249    0.5364514 
C    -0.8988744    2.4914809   -2.3651336 
C    -2.0994701    1.8767710   -1.8810906 
C    -2.5922316    2.1531203   -0.5615504 
C    -1.9446521    3.2188556    0.1576245 
C    -0.3301812    3.5840421   -1.6858114 
C    -0.9309976    3.9914021   -0.4456349 
