60 

C     2.8867478    2.1134910   -1.3674811 
C     2.4839520    2.5583938   -0.0827529 
C     1.1433543    3.1435245   -0.2196744 
C     1.7888013    2.3264292   -2.2866516 
C     0.7531888    3.0260620   -1.6052795 
C     1.5166437    1.1267081   -2.9825354 
C     3.3948100    0.7932106   -1.5661522 
C     2.5489942    0.1643672   -2.5949410 
C     3.8183912    0.0610912   -0.4625397 
C     2.8422054    1.8032947    1.0805324 
C     3.6351220    0.6058859    0.8880256 
C     1.9050418    1.8227297    2.1611970 
C     0.1714876    3.0610937    0.8147489 
C     0.6129338    2.4760289    2.0424149 
C    -1.2617333    2.9836168    0.4543504 
C    -0.5684743    2.7148898   -1.9244615 
C    -1.6073619    2.8179714   -0.9246869 
C     0.1530364    0.7142767   -3.2276874 
C    -0.8729592    1.6256508   -2.8237000 
C    -0.1530364   -0.7142767   -3.2276874 
C     2.2039576   -1.1709592   -2.4796850 
C     0.8729592   -1.6256508   -2.8237000 
C     3.5328486   -1.3718579   -0.3954634 
C     2.6892017   -1.9537137   -1.3408410 
C     3.4493509   -0.4993763    1.7609200 
C     3.3253978   -1.7090219    0.9730156 
C     1.7285716    0.6675981    3.0120831 
C     2.4386549   -0.5138407    2.7621337 
C    -0.3298494    1.7899472    2.9005309 
C     0.3354903    0.6096132    3.4229504 
C    -2.1830984    2.4317337    1.4092751 
C    -1.6817929    1.7602239    2.6023548 
C    -3.3253978    1.7090219    0.9730156 
C    -2.6892017    1.9537137   -1.3408410 
C    -2.2039576    1.1709592   -2.4796850 
C    -3.5328486    1.3718579   -0.3954634 
C    -1.5166437   -1.1267081   -2.9825354 
C    -2.5489942   -0.1643672   -2.5949410 
C    -1.7888013   -2.3264292   -2.2866516 
C     0.5684743   -2.7148898   -1.9244615 
C     1.6073619   -2.8179714   -0.9246869 
C    -0.7531888   -3.0260620   -1.6052795 
C     2.1830984   -2.4317337    1.4092751 
C     1.6817929   -1.7602239    2.6023548 
C     1.2617333   -2.9836168    0.4543504 
C    -0.3354903   -0.6096132    3.4229504 
C     0.3298494   -1.7899472    2.9005309 
C    -2.4386549    0.5138407    2.7621337 
C    -3.4493509    0.4993763    1.7609200 
C    -1.7285716   -0.6675981    3.0120831 
C    -3.8183912   -0.0610912   -0.4625397 
C    -3.3948100   -0.7932106   -1.5661522 
C    -2.8867478   -2.1134910   -1.3674811 
C    -3.6351220   -0.6058859    0.8880256 
C    -1.1433543   -3.1435245   -0.2196744 
C    -0.1714876   -3.0610937    0.8147489 
C    -0.6129338   -2.4760289    2.0424149 
C    -1.9050418   -1.8227297    2.1611970 
C    -2.4839520   -2.5583938   -0.0827529 
C    -2.8422054   -1.8032947    1.0805324 
