60 

C     1.4700734    4.2080301    0.0040328 
C     0.2119541    4.1901618    0.6842294 
C     0.2926861    3.3524513    1.8419251 
C     2.3333102    3.2894632    0.6561332 
C     1.6331950    2.7536059    1.8037113 
C     2.7445618    2.3061819   -0.3090574 
C     1.2053442    3.7078994   -1.3198943 
C     2.0301941    2.5823705   -1.5639562 
C    -0.8600892    3.9926584   -0.2623301 
C    -0.2249714    3.5785738   -1.5242094 
C    -2.0149491    3.3389918    0.1641190 
C    -0.8339098    2.5536143    2.2118269 
C    -2.0236483    2.6051686    1.4272281 
C    -0.5647914    1.3098654    2.8631584 
C     1.8441676    1.4151922    2.2240432 
C     0.7807940    0.8022900    2.9589199 
C     3.0402191    0.9752042    0.0725425 
C     2.7062114    0.5261371    1.4272615 
C     3.0175912    0.0156367   -0.9760187 
C     1.5785507    1.5030683   -2.3757839 
C     2.2770133    0.2771562   -2.2008537 
C    -0.7459204    2.4861192   -2.2775449 
C     0.1775573    1.4676728   -2.8027484 
C    -2.7277109    2.5482630   -0.7863571 
C    -2.0960332    2.0702485   -1.9444838 
C    -2.8140995    1.3936740    1.2295249 
C    -3.2879070    1.3915759   -0.0981685 
C    -1.4507297    0.1723520    2.7992528 
C    -2.5033218    0.1337950    1.8391331 
C     0.7146933   -0.6206958    3.1533032 
C    -0.6850935   -1.0080342    3.1093996 
C     2.6346195   -0.8658449    1.6572367 
C     1.6654737   -1.4497773    2.5735505 
C     2.9807599   -1.3938174   -0.7143232 
C     2.8307281   -1.8407096    0.6062362 
C     1.7469098   -0.9747524   -2.6427181 
C     2.2418800   -2.0419435   -1.7786569 
C    -0.3496386    0.1930192   -3.1553921 
C     0.4345577   -1.0111810   -3.1276818 
C    -2.5152548    0.6700892   -2.1092684 
C    -3.2047197    0.2332274   -0.9096245 
C    -1.6891887   -0.2072441   -2.7611517 
C    -2.7395545   -1.1095038    1.1012986 
C    -2.9729395   -1.0497237   -0.3411863 
C    -1.0529976   -2.2345044    2.6047566 
C    -2.1391443   -2.3060078    1.6196640 
C     1.3025764   -2.7841050    2.1176830 
C     2.0437736   -3.0320386    0.8890189 
C    -0.0339182   -3.2197436    2.2332813 
C     1.4754172   -3.1678633   -1.5187908 
C     1.4405889   -3.7458278   -0.1713894 
C    -0.4138041   -2.1410832   -2.7582741 
C    -1.6963933   -1.6114931   -2.3956658 
C    -2.3785621   -2.0701535   -1.2156627 
C     0.1168849   -3.2500984   -2.0726771 
C    -1.8747542   -3.4136778    0.7939279 
C    -0.5985626   -4.0161071    1.1897398 
C     0.1253140   -4.2835558    0.0232262 
C    -1.9021422   -3.2892018   -0.6394049 
C    -0.7028506   -3.9050684   -1.1260903 
