60 

C    -0.6913702   -0.2848446   -4.0947759 
C    -0.5874194   -1.5613236   -3.5898837 
C     0.8144009   -1.8260099   -3.2164681 
C     0.6913702    0.2848446   -4.0947759 
C     1.5938016   -0.6580698   -3.4578572 
C     0.5874194    1.5613236   -3.5898837 
C    -1.5938016    0.6580698   -3.4578572 
C    -0.8144009    1.8260099   -3.2164681 
C    -2.5033758    0.2342849   -2.4459911 
C    -1.4396033   -2.0130697   -2.5348528 
C    -2.5138577   -1.1970600   -2.0905628 
C     0.7947324   -2.4498500   -1.9594108 
C    -0.5920949   -2.6457742   -1.5449223 
C     1.8047046   -2.1846759   -1.0020592 
C     2.5033758   -0.2342849   -2.4459911 
C     2.7945099   -1.1688634   -1.3530756 
C     1.4396033    2.0130697   -2.5348528 
C     2.5138577    1.1970600   -2.0905628 
C    -0.7947324    2.4498500   -1.9594108 
C     0.5920949    2.6457742   -1.5449223 
C    -2.7945099    1.1688634   -1.3530756 
C    -1.8047046    2.1846759   -1.0020592 
C    -3.6632120    0.7167412   -0.3109211 
C    -3.0514589   -1.5786764   -0.8322504 
C    -3.8752896   -0.6895851   -0.1172387 
C    -0.9353625   -2.6811653   -0.1718810 
C    -2.2700840   -2.3165585    0.1410928 
C     1.5025294   -2.4874900    0.4039278 
C     0.1100634   -2.5973617    0.8437945 
C     2.5063340   -2.1433630    1.3593392 
C     3.6632120   -0.7167412   -0.3109211 
C     3.6136065   -1.3179678    0.9781683 
C     3.0514589    1.5786764   -0.8322504 
C     3.8752896    0.6895851   -0.1172387 
C     0.9353625    2.6811653   -0.1718810 
C     2.2700840    2.3165585    0.1410928 
C    -1.5025294    2.4874900    0.4039278 
C    -0.1100634    2.5973617    0.8437945 
C    -3.6136065    1.3179678    0.9781683 
C    -2.5063340    2.1433630    1.3593392 
C    -3.7602436   -0.9717453    1.3133891 
C    -2.6659708   -1.8787512    1.4717250 
C    -3.7612034    0.2587767    2.0004996 
C    -0.2821310   -2.1321688    2.1746737 
C    -1.6479241   -1.6558840    2.4528678 
C     2.1037853   -1.7391488    2.6693934 
C     0.7596099   -1.6336390    3.0227708 
C     3.7612034   -0.2587767    2.0004996 
C     3.7602436    0.9717453    1.3133891 
C     2.6659708    1.8787512    1.4717250 
C     2.8135640   -0.4798543    2.9984651 
C     0.2821310    2.1321688    2.1746737 
C     0.6086225   -0.2948300    3.5987117 
C     1.6479241    1.6558840    2.4528678 
C     1.8071046    0.4789566    3.2931670 
C    -2.1037853    1.7391488    2.6693934 
C    -2.8135640    0.4798543    2.9984651 
C    -1.8071046   -0.4789566    3.2931670 
C    -0.7596099    1.6336390    3.0227708 
C    -0.6086225    0.2948300    3.5987117 
