60 

C    -0.7319191   -4.5966258    0.4569882 
C    -1.7422905   -3.8350566    1.1330074 
C    -2.5807244   -3.2908519    0.1453217 
C    -0.7906028   -4.2504232   -0.9838125 
C    -1.9651254   -3.5251069   -1.1969481 
C     0.4615786   -3.6894137   -1.3914947 
C     0.5165756   -4.1709590    0.9204096 
C     1.3458560   -3.8231565   -0.2167407 
C    -1.0669715   -2.8933072    2.0452829 
C     0.3488833   -3.1614206    1.9649955 
C    -1.5123971   -1.5581101    2.1888834 
C    -2.9915716   -1.9564972    0.2122533 
C    -2.6449051   -1.1381608    1.3491856 
C    -1.9364361   -2.2755830   -1.8592531 
C    -2.7812926   -1.3637146   -1.0966414 
C     0.5268176   -2.4628677   -2.1342159 
C    -0.7256065   -1.7340092   -2.4093358 
C     1.7817632   -1.6946101   -2.0676834 
C     2.3728815   -2.9524694   -0.0080844 
C     2.7648272   -2.0274803   -1.0653706 
C     1.3013943   -2.1247393    2.1031815 
C     2.4832245   -2.2311271    1.2633219 
C    -0.5580548   -0.5151606    2.5866583 
C     0.8656581   -0.7958301    2.5132496 
C    -1.0172398    0.8763602    2.6236681 
C    -2.8839348    0.2211263    1.1731542 
C    -2.2362867    1.2350007    1.9664680 
C    -2.7492962    0.0182520   -1.2722665 
C    -3.1238508    0.7957123   -0.1309130 
C    -0.7034504   -0.3015378   -2.6792091 
C    -1.8086283    0.5760740   -2.2323303 
C     1.7810623   -0.3465385   -2.5066106 
C     0.5539340    0.3169013   -2.8913469 
C     2.6407798    0.6751370   -1.9311987 
C     3.5240734   -1.0069320   -0.4529144 
C     3.2598903   -1.1032615    0.9855574 
C     3.4137870    0.3511163   -0.8100476 
C     1.7920226    0.3336836    2.3159194 
C     2.9435078    0.1796582    1.4723245 
C     3.1889615    1.1389094    0.4035027 
C    -0.0598072    1.9397964    2.7438489 
C     1.3315719    1.6504021    2.4267298 
C    -0.3456628    3.2496953    2.3071297 
C    -2.4158073    2.5115883    1.3068764 
C    -2.8603286    2.1907580   -0.0569836 
C    -1.4916577    3.5468661    1.5107006 
C    -1.6456216    1.9769038   -2.2016274 
C    -2.2555092    2.8083393   -1.1660070 
C     0.7382594    1.7311940   -2.7144801 
C     1.9669726    1.9448625   -1.9860121 
C    -0.3522008    2.5807974   -2.5076206 
C     2.5371648    2.3849984    0.3764695 
C     1.8366618    2.7198159    1.5858501 
C     0.8435430    3.7344765    1.5769193 
C     2.0125621    2.9002150   -0.9117123 
C    -1.0282683    4.3239779    0.3621828 
C    -1.3790138    3.9279586   -0.9223540 
C    -0.1653879    3.7449697   -1.7334126 
C     0.4434959    4.3491269    0.3985143 
C     0.9721396    3.8902774   -0.8819268 
