60 

C    -0.5996846   -4.5159939   -0.7229080 
C     0.8045617   -4.2164299   -0.8071852 
C     1.2823017   -3.9998772    0.5106438 
C    -1.0172503   -4.2015069    0.6431115 
C     0.1160415   -3.9329105    1.4233982 
C    -2.0296182   -3.1767516    0.6190098 
C    -1.2501206   -3.5470263   -1.5240435 
C    -2.2637146   -2.8457925   -0.7728577 
C     1.0083974   -3.1246582   -1.7569180 
C    -0.3075410   -2.7232693   -2.2390657 
C     2.0018188   -2.1362185   -1.5420209 
C     2.1373968   -2.9310529    0.8010810 
C     2.6964582   -2.1393601   -0.2508245 
C     0.2530512   -2.7445689    2.2081258 
C     1.5675878   -2.2069128    1.9316185 
C    -2.0271372   -2.1031078    1.5792078 
C    -0.8197901   -1.8064923    2.3643936 
C    -2.8746741   -1.0342710    1.2414957 
C    -2.6644599   -1.5571713   -1.1615223 
C    -3.3105463   -0.8282345   -0.1165697 
C    -0.6108227   -1.3753284   -2.5536652 
C    -1.9030836   -0.8066212   -2.1527068 
C     1.8393760   -0.8592010   -2.2439989 
C     0.5236517   -0.4883256   -2.7739777 
C     2.7452306    0.1932223   -1.9135302 
C     3.3107724   -0.9461099    0.1846519 
C     3.5130118    0.1014388   -0.7286861 
C     1.8941574   -0.8604268    2.2128256 
C     2.9720595   -0.3198551    1.4581233 
C    -0.5195661   -0.4180263    2.7327791 
C     0.8713696    0.0170911    2.7723303 
C    -2.7612400    0.2720679    1.8826312 
C    -1.5626336    0.6025505    2.5944182 
C    -3.5595158    0.5469559   -0.2572683 
C    -3.3624747    1.2245555    1.0276884 
C    -2.0989620    0.6317183   -2.2271229 
C    -2.9797598    1.3021378   -1.2838650 
C     0.2516373    0.8807453   -3.0026136 
C    -1.0555433    1.4306468   -2.7689611 
C     2.3860503    1.6008346   -2.0391564 
C     1.2102904    1.9286498   -2.6610136 
C     3.4888743    1.3928406   -0.0390489 
C     3.1377348    1.1172422    1.3204497 
C     2.7836217    2.3245938   -0.8116276 
C     1.1735096    1.4152073    2.7851016 
C     2.2446346    1.9601614    1.9574912 
C    -1.2071591    2.0023345    2.5822411 
C     0.1409676    2.3736531    2.7768348 
C    -2.7884935    2.4882347    0.7720682 
C    -2.6203561    2.6076031   -0.6849611 
C    -1.7851753    2.9501447    1.6233238 
C    -0.8900347    2.8129970   -2.3500372 
C     0.4809502    3.0886782   -2.2125728 
C    -1.5659267    3.3372183   -1.1943811 
C     1.8873805    3.2748085   -0.1750471 
C     1.7259627    3.1458145    1.2540090 
C     0.4799485    3.4452940    1.8517840 
C    -0.6862828    3.7488642    1.0876973 
C     0.7416817    3.7067887   -0.9276504 
C    -0.5489214    3.9204073   -0.3027271 
