60 

C    -0.1934758    4.4700265    0.8602508 
C     1.1063020    3.9594253    1.1628088 
C     1.8130992    3.7897504   -0.0513787 
C    -0.3856031    4.3170204   -0.5857651 
C     0.8495883    3.9429554   -1.1668577 
C    -1.4965479    3.4663772   -0.8159211 
C    -1.1333922    3.6032750    1.4765955 
C    -2.0559635    3.1078979    0.5074342 
C     0.9728685    2.7898441    2.0471154 
C    -0.4517728    2.5947070    2.2542027 
C     1.8244676    1.6717729    1.9167226 
C     2.5706921    2.6318194   -0.2639206 
C     2.7793963    1.6815739    0.7998189 
C     0.9859321    2.7844750   -1.9843878 
C     2.1945030    2.0907710   -1.5604979 
C    -1.4219365    2.4149188   -1.7962274 
C    -0.1377696    1.9764637   -2.3499152 
C    -2.4453219    1.4621620   -1.7074242 
C    -2.7011545    1.8827333    0.7168907 
C    -3.2196876    1.2957857   -0.4802134 
C    -0.9939869    1.2946714    2.4072857 
C    -2.2676732    0.9674495    1.7750203 
C     1.3603858    0.3757280    2.4230832 
C    -0.0538503    0.2360677    2.7379541 
C     2.1506038   -0.8223263    2.1458566 
C     3.3375177    0.4756203    0.3861765 
C     3.1948066   -0.7492731    1.1631973 
C     2.4589234    0.7670347   -1.9011762 
C     3.3802645    0.1048911   -1.0123810 
C     0.0662724    0.5488139   -2.6583757 
C     1.4122129   -0.0161122   -2.5681355 
C    -2.3602189    0.1629495   -2.3280475 
C    -1.0743096   -0.3678039   -2.6659172 
C    -3.7729159    0.0188075   -0.4816203 
C    -3.3564302   -0.6620069   -1.7155077 
C    -2.7126763   -0.4199932    1.7209248 
C    -3.5564035   -0.8699426    0.6201361 
C    -0.6003519   -1.0684535    2.8780701 
C    -1.9014141   -1.4045529    2.3388893 
C     1.5560681   -2.1230071    2.3144242 
C     0.2347917   -2.2098248    2.7831415 
C     1.7155975   -3.1902593    1.3122535 
C     3.4675177   -1.8475210    0.3047247 
C     3.5179647   -1.2958173   -1.0541806 
C     2.6287024   -3.0120967    0.2762757 
C     1.5664443   -1.4339576   -2.5436556 
C     2.6772305   -2.0543299   -1.8645147 
C     2.1860742   -3.1927200   -1.0974809 
C    -0.8772408   -1.8170213   -2.4295594 
C     0.4368791   -2.2974458   -2.3397836 
C     0.8187037   -3.3474842   -1.3744744 
C    -3.1006285   -1.9874089   -1.3861343 
C    -3.3381473   -2.1683455    0.0493271 
C    -1.8654612   -2.5934868   -1.7138720 
C    -1.7818628   -2.7750515    1.7954215 
C    -0.4794467   -3.2437954    2.0572703 
C     0.3882054   -3.7200299    1.0325244 
C    -0.1028730   -3.7340103   -0.3373612 
C    -2.3542778   -3.0506169    0.5371501 
C    -1.4592209   -3.4110935   -0.5662597 
