60 

C    -0.7303259    4.1071196    1.4685172 
C     0.6440960    4.0089439    1.1457867 
C     0.7791130    3.8755223   -0.2967831 
C    -1.4848797    3.9398985    0.2757080 
C    -0.5673893    3.8009049   -0.8380733 
C    -2.4251912    2.8812194    0.5018432 
C    -1.0527742    2.9981717    2.3538121 
C    -2.1337217    2.2548869    1.8146856 
C     1.2336696    2.9930495    1.9739880 
C     0.1422326    2.3089952    2.7112909 
C     2.2809360    2.2415857    1.4673273 
C     1.8314236    3.0841865   -0.8475214 
C     2.6734655    2.3465450    0.0725112 
C     1.5958093    2.4542206   -2.1177294 
C    -0.8605373    2.8576584   -1.8896536 
C     0.2120352    2.2612649   -2.5826807 
C    -2.8031600    2.0500252   -0.5457005 
C    -2.0524327    2.0417859   -1.7788656 
C    -3.2464683    0.7118859   -0.2739679 
C    -2.1938019    0.8469153    1.9690273 
C    -3.0017428    0.1012654    0.9952773 
C     0.1394754    0.9028244    2.8555974 
C    -1.0945609    0.1534531    2.6256839 
C     2.4495372    0.8754639    1.8831269 
C     1.4226149    0.2143193    2.6325842 
C     3.2578598    1.0739633   -0.2824608 
C     3.1466413    0.1693147    0.8449094 
C     2.3211651    1.3075930   -2.4922298 
C     3.0941610    0.5587117   -1.5737051 
C     0.1082653    0.9184340   -3.1507947 
C     1.4078331    0.3687691   -3.1318174 
C    -2.1372829    0.7068296   -2.3219546 
C    -3.0125103   -0.0574771   -1.4725417 
C    -1.0150628    0.0682328   -2.9221989 
C    -2.9222274   -1.4399036   -1.4170019 
C    -2.9880425   -1.3185351    1.0291833 
C    -3.1519702   -2.0673773   -0.1673742 
C    -1.0429894   -1.3093305    2.5731851 
C    -2.0421875   -2.0414033    1.8721455 
C     1.4592194   -1.1790685    2.6177171 
C     0.2336865   -1.9753716    2.7504537 
C     3.0102409   -1.2349669    0.6870147 
C     2.3650217   -1.9088449    1.7647115 
C     2.7559851   -0.8677247   -1.7441016 
C     1.6748542   -0.9481905   -2.7146975 
C     2.8069067   -1.7759642   -0.6743949 
C    -0.7876409   -1.3828156   -2.7073411 
C    -1.8067452   -2.1346474   -2.0658333 
C     0.5979267   -1.8792875   -2.5712576 
C    -2.3112084   -3.2398605   -0.0842479 
C    -1.7313463   -3.3151711    1.2127314 
C    -1.5109006   -3.3214951   -1.2708343 
C     0.4863272   -3.2612705    2.2374755 
C     1.7823487   -3.1944419    1.5677928 
C    -0.4440167   -3.8845077    1.3277018 
C     2.0127663   -2.9762660   -0.8391482 
C     0.8806313   -2.9999233   -1.7528522 
C    -0.1843227   -3.7754601   -1.1300848 
C     1.6547312   -3.7601900    0.2901267 
C     0.2744600   -4.2344646    0.1359322 
