60 

C    -0.4235540    0.5773609   -4.8875831 
C     0.4235540   -0.5773609   -4.8875831 
C    -0.2398838   -1.5785895   -4.1568339 
C    -1.5917544    0.2704451   -4.0254259 
C    -1.5037711   -1.0723757   -3.5839316 
C    -1.7975690    1.2851793   -3.0287016 
C     0.2398838    1.5785895   -4.1568339 
C    -0.6910534    2.2114332   -3.2439864 
C     1.5917544   -0.2704451   -4.0254259 
C     1.5037711    1.0723757   -3.5839316 
C     0.6910534   -2.2114332   -3.2439864 
C     1.7975690   -1.2851793   -3.0287016 
C     0.1566011   -2.8343649   -2.1672890 
C    -1.8818858   -1.4249050   -2.2452906 
C    -1.2241690   -2.5736343   -1.7165810 
C    -2.1797201    0.9785277   -1.6777467 
C    -2.2938635   -0.4077804   -1.2596751 
C    -1.8978221    1.9807020   -0.6455798 
C    -0.1566011    2.8343649   -2.1672890 
C    -0.9395276    2.9719089   -0.9758751 
C     1.8818858    1.4249050   -2.2452906 
C     1.2241690    2.5736343   -1.7165810 
C     2.1797201   -0.9785277   -1.6777467 
C     2.2938635    0.4077804   -1.2596751 
C     0.9395276   -2.9719089   -0.9758751 
C     1.8978221   -1.9807020   -0.6455798 
C    -1.2904382   -2.9117814   -0.3601227 
C     0.0311004   -3.4266716    0.0284556 
C    -2.3269875   -0.7340629    0.1741056 
C    -1.9742949   -2.0879724    0.5941256 
C    -2.1063382    1.6914265    0.7763109 
C    -2.3231928    0.3151531    1.2015931 
C    -1.5907837    2.6419959    1.7189231 
C    -0.0311004    3.4266716    0.0284556 
C     1.2904382    2.9117814   -0.3601227 
C    -0.4394037    3.4589360    1.3193618 
C     2.3269875    0.7340629    0.1741056 
C     1.9742949    2.0879724    0.5941256 
C     2.1063382   -1.6914265    0.7763109 
C     2.3231928   -0.3151531    1.2015931 
C     0.4394037   -3.4589360    1.3193618 
C     1.5907837   -2.6419959    1.7189231 
C    -1.6975109   -2.3777463    1.9618982 
C    -0.5693971   -3.2385033    2.3164906 
C    -2.0548414   -0.0254175    2.6151956 
C    -1.7491067   -1.3708118    2.9673594 
C    -1.3585738    2.3050531    3.0937371 
C    -1.5040440    0.9745789    3.5080888 
C     0.5693971    3.2385033    2.3164906 
C     1.6975109    2.3777463    1.9618982 
C    -0.0323680    2.8125645    3.5161928 
C     2.0548414    0.0254175    2.6151956 
C    -0.2364253    0.6476618    4.2074390 
C     1.7491067    1.3708118    2.9673594 
C     0.6913003    1.6894460    3.9753454 
C     1.3585738   -2.3050531    3.0937371 
C     0.0323680   -2.8125645    3.5161928 
C    -0.6913003   -1.6894460    3.9753454 
C     1.5040440   -0.9745789    3.5080888 
C     0.2364253   -0.6476618    4.2074390 
