60 

C    -1.2118161   -3.8539416    0.7961917 
C    -0.3949483   -3.5388475    1.8691217 
C     1.0172507   -3.6357719    1.4471086 
C    -0.3213781   -4.0760414   -0.3802462 
C     1.0420487   -3.9494432    0.0442547 
C    -0.8370888   -3.3172916   -1.4406031 
C    -2.2789152   -3.0062162    0.4303828 
C    -2.1428963   -2.8290479   -1.0180524 
C    -2.6069125   -1.8446509    1.2318967 
C    -0.5876463   -2.3093838    2.5851903 
C    -1.6866194   -1.4343430    2.2969455 
C     1.6978734   -2.5047549    1.9349011 
C     0.7395052   -1.7748503    2.7636394 
C     2.6452102   -1.7688819    1.1221914 
C     1.9172478   -3.2464384   -0.7788275 
C     2.8509302   -2.2777517   -0.1992516 
C     0.0278051   -2.4794064   -2.2539114 
C     1.4167301   -2.6355642   -2.0089963 
C    -0.4692107   -1.1558069   -2.7061932 
C    -2.6741885   -1.7213260   -1.6254032 
C    -1.8304956   -0.8551502   -2.4626005 
C    -3.3528997   -0.8253965    0.5653208 
C    -3.5205060   -0.8805700   -0.8506534 
C    -3.2722190    0.5824556    0.9497100 
C    -1.5163666    0.0017035    2.5920731 
C    -2.3727155    1.0177070    1.9629063 
C     0.9083988   -0.4299324    2.9523828 
C    -0.2352604    0.4411767    3.0196305 
C     2.8340527   -0.3221905    1.3638242 
C     2.0301290    0.2784477    2.3682337 
C     3.2995767    0.5790545    0.2922982 
C     3.1967749   -1.3602469   -1.2312264 
C     2.2851914   -1.5533256   -2.3188632 
C     3.3842468    0.0299419   -1.0257060 
C     0.4441979   -0.0115099   -2.8915040 
C     1.8326333   -0.2740057   -2.7505130 
C     2.7081897    0.7022798   -2.1261688 
C    -0.0244847    1.3821915   -2.6796185 
C    -2.3099014    0.5022304   -2.2833410 
C    -3.3838682    0.4554855   -1.3491365 
C    -3.4164663    1.3688728   -0.2616331 
C    -1.4246411    1.6350951   -2.3241262 
C    -2.7398523    2.5748543   -0.4197974 
C    -1.7756636    2.7563820   -1.5151702 
C    -1.9124881    2.3879739    1.8826472 
C    -2.1923733    3.1778232    0.7334596 
C     0.2636170    1.7815106    2.7819106 
C     1.6677051    1.6802130    2.3670674 
C    -0.5583104    2.7667396    2.2811242 
C     3.0141943    1.9861447    0.3665282 
C     2.1948834    2.5588459    1.4379870 
C     2.2948646    2.0061972   -1.9838998 
C     0.9238676    2.3780397   -2.3214031 
C     2.6713244    2.7099906   -0.8077415 
C    -0.7611602    3.6767039   -1.0398262 
C    -1.0099043    3.9400152    0.3529195 
C    -0.0061280    3.7368209    1.3226634 
C     1.3445100    3.6171433    0.8983400 
C     0.5622637    3.5068126   -1.4629857 
C     1.6121023    3.6532350   -0.4954511 
