60 

C    -4.0218624    0.2051864   -2.4949666 
C    -4.6691280   -0.3252704   -1.3882574 
C    -4.5315529    0.5985843   -0.2739480 
C    -3.3595051    1.4460322   -2.0552615 
C    -3.6496393    1.6827921   -0.6501549 
C    -2.0150590    1.4165275   -2.4444936 
C    -2.9359139   -0.6914194   -2.8457344 
C    -1.7802829    0.0842851   -3.0761929 
C    -3.9450781   -1.5338833   -0.9642960 
C    -2.8245090   -1.7407504   -1.8514276 
C    -4.2304934   -0.1556821    0.8901003 
C    -3.6871669   -1.4635170    0.4201250 
C    -3.5481217    0.4835306    1.8979095 
C    -2.5915872    2.0888997    0.2460293 
C    -2.7207713    1.6571093    1.5916622 
C    -0.9556675    1.9568160   -1.6351138 
C    -1.2017792    2.3051824   -0.2532737 
C     0.3761031    1.6666552   -2.0772061 
C    -0.5440471   -0.4771439   -2.8785333 
C     0.5440471    0.4771439   -2.8785333 
C    -1.5298838   -2.0910005   -1.3252103 
C    -0.3761031   -1.6666552   -2.0772061 
C    -2.4441441   -1.9436191    0.9823825 
C    -1.3215741   -2.2872910    0.1043742 
C    -2.8075439   -0.3168423    2.8091317 
C    -2.1644831   -1.4893175    2.3122394 
C    -1.5869937    1.6225454    2.4770813 
C    -1.7403140    0.4844584    3.3369884 
C    -0.0521620    2.3412015    0.6368053 
C    -0.2688795    2.0305619    2.0589194 
C     1.5298838    2.0910005   -1.3252103 
C     1.3215741    2.2872910    0.1043742 
C     2.8245090    1.7407504   -1.8514276 
C     1.7802829   -0.0842851   -3.0761929 
C     2.9359139    0.6914194   -2.8457344 
C     0.9556675   -1.9568160   -1.6351138 
C     2.0150590   -1.4165275   -2.4444936 
C     0.0521620   -2.3412015    0.6368053 
C     1.2017792   -2.3051824   -0.2532737 
C    -0.8047035   -1.5336142    2.8378991 
C    -0.6151144   -0.3196640    3.6124224 
C     0.2688795   -2.0305619    2.0589194 
C     0.8047035    1.5336142    2.8378991 
C     0.6151144    0.3196640    3.6124224 
C     2.4441441    1.9436191    0.9823825 
C     2.1644831    1.4893175    2.3122394 
C     3.9450781    1.5338833   -0.9642960 
C     3.6871669    1.4635170    0.4201250 
C     4.0218624   -0.2051864   -2.4949666 
C     3.3595051   -1.4460322   -2.0552615 
C     4.6691280    0.3252704   -1.3882574 
C     2.5915872   -2.0888997    0.2460293 
C     4.2304934    0.1556821    0.8901003 
C     3.6496393   -1.6827921   -0.6501549 
C     4.5315529   -0.5985843   -0.2739480 
C     1.5869937   -1.6225454    2.4770813 
C     1.7403140   -0.4844584    3.3369884 
C     2.8075439    0.3168423    2.8091317 
C     2.7207713   -1.6571093    1.5916622 
C     3.5481217   -0.4835306    1.8979095 
