60 

C    -0.6446675    4.4482678    0.6035182 
C     0.7196403    4.2644110    0.8437920 
C     0.8388643    3.3253906    1.9764122 
C    -1.3962335    3.5168931    1.4800889 
C    -0.4798887    2.7975569    2.2815620 
C    -2.3634935    2.8195150    0.6742931 
C    -1.1601107    4.2984656   -0.7118344 
C    -2.2761185    3.3259905   -0.6528780 
C    -0.3082924    3.9166878   -1.7612801 
C     1.5899385    3.7794447   -0.2008417 
C     1.0744389    3.5762092   -1.5124571 
C     1.8570359    2.4278570    1.7313681 
C     2.3804968    2.7155434    0.3681248 
C     1.7629326    1.0708092    2.2059992 
C    -0.6720614    1.3905737    2.5043528 
C     0.4865112    0.5199796    2.6394430 
C    -2.6107413    1.4412219    0.9068373 
C    -1.9218941    0.8090438    2.0223605 
C    -2.9046566    0.5758777   -0.2200095 
C    -2.1306820    2.3964830   -1.7157016 
C    -0.9329437    2.7736666   -2.4327641 
C    -2.4173136    1.0292110   -1.5164127 
C     1.3227133    2.2987292   -2.1656163 
C     0.0523095    1.8083196   -2.7004964 
C     2.8438353    1.6313208   -0.3805690 
C     2.2369176    1.3483104   -1.6904125 
C     2.7159660    0.1926010    1.6907095 
C     3.3276769    0.5192457    0.3847180 
C     2.5998525   -1.2350293    1.7860365 
C     0.3202510   -0.9308970    2.6592076 
C     1.3749785   -1.8445839    2.2002541 
C    -2.1009942   -0.5566108    2.2051199 
C    -1.0260991   -1.4085248    2.6827634 
C    -3.1244026   -0.8358749    0.0019943 
C    -2.9412869   -1.3518132    1.3356443 
C    -2.8728618   -1.7350119   -1.0896559 
C    -1.6371726    0.0626292   -2.2797076 
C    -0.2757804    0.4210225   -2.6887538 
C    -1.9489277   -1.2825107   -2.1057990 
C     2.0966476   -0.0491525   -2.1113015 
C     0.7998746   -0.5417497   -2.5806523 
C     3.6368316   -0.6647168   -0.2503796 
C     3.3394923   -1.7673733    0.6772584 
C     2.9913567   -0.9914595   -1.5176035 
C     2.8293490   -2.8225523   -0.0464097 
C     2.6203853   -2.3571840   -1.4272056 
C     0.9921093   -3.1370942    1.5779819 
C     1.6773676   -3.5413715    0.3772313 
C    -1.3540182   -2.7304167    2.3207786 
C    -2.5947800   -2.7200003    1.5552061 
C    -0.3774543   -3.5733514    1.6741648 
C    -2.5644100   -3.1131957   -0.8443557 
C    -2.4032506   -3.5881766    0.4663830 
C    -1.0368685   -4.1692368    0.5633737 
C    -0.9461245   -2.3119260   -2.3321433 
C     0.4396704   -1.9535015   -2.4469717 
C     1.3733861   -2.8600711   -1.8433516 
C     0.9143336   -3.8320111   -0.8329808 
C    -1.3567622   -3.4513537   -1.6002845 
C    -0.4348719   -4.1445265   -0.7381480 
