60 

C     0.6437395   -4.3236636   -0.1420360 
C     1.4737813   -3.8104777    0.8811989 
C     2.5507611   -3.1114817    0.2351095 
C     1.0448855   -3.6419850   -1.4144042 
C     2.2036211   -2.9046018   -1.1728736 
C    -0.1116326   -3.0228010   -1.9903591 
C    -0.7107338   -4.1573330   -0.0224468 
C    -1.2399888   -3.5540402   -1.2766150 
C    -1.2945736   -3.4321149    1.0732139 
C     0.9481252   -2.9159548    1.8885504 
C    -0.4504602   -2.6677789    1.9759418 
C     2.9360735   -2.0163297    1.0293488 
C     1.8877023   -1.8006013    2.0313709 
C     3.5220657   -0.9524924    0.3807044 
C     2.3491549   -1.5920729   -1.7317497 
C     3.3508213   -0.8068132   -1.0897406 
C    -0.0933225   -1.6128493   -2.3508076 
C     1.1950430   -0.9089218   -2.3261788 
C    -1.3457048   -0.8652559   -2.2586395 
C    -2.3115346   -2.7595098   -0.9510831 
C    -2.4626221   -2.8175333    0.5376526 
C    -2.5040823   -1.4975857   -1.5992095 
C    -3.0504792   -1.7607192    1.1869021 
C    -0.8927740   -1.3116278    2.3676150 
C    -2.2514379   -0.9669073    2.1315283 
C     1.4953814   -0.4857645    2.3319435 
C     0.0563629   -0.2122330    2.5317558 
C     3.4708723    0.3416173    0.9744916 
C     2.4217048    0.6066207    1.9416888 
C     3.4330138    0.5502651   -1.3429212 
C     3.6791063    1.2725832   -0.0867981 
C     1.2174575    0.5528060   -2.4264291 
C     2.4110980    1.2560301   -2.0337883 
C    -1.3225744    0.5931403   -2.3792705 
C    -0.0406611    1.3059906   -2.4560292 
C    -2.4851453    1.3180500   -1.9394339 
C    -3.5274752   -0.7048381   -1.0090666 
C    -3.8624479   -0.8889820    0.4253537 
C    -3.5658594    0.6678951   -1.2778837 
C    -2.7090565    0.3891961    1.9981959 
C    -3.7945751    0.3980990    1.0231656 
C    -3.7698349    1.3633276   -0.0066079 
C    -0.4201944    1.1583753    2.4567812 
C    -1.7991267    1.4717404    2.0751780 
C     1.9575760    1.9296867    1.9952265 
C     0.5541292    2.2181170    2.3220060 
C     3.0604120    2.5167418   -0.1354780 
C     2.3505014    2.5849005   -1.4335922 
C     2.3850446    2.9422448    1.0413424 
C    -0.0000053    2.6992281   -2.1040270 
C     1.1858637    3.3125580   -1.5248269 
C    -2.3045459    2.5913300   -1.2689606 
C    -2.9033793    2.4583128    0.0602710 
C    -2.0523880    2.6520035    1.2161443 
C    -1.1325518    3.2889403   -1.4133112 
C     0.2081293    3.4661240    1.7730007 
C     1.3176579    3.8630569    0.8955349 
C     0.7763143    4.1127259   -0.3776217 
C    -1.0217452    3.5971638    1.0460939 
C    -0.6554872    4.0243992   -0.2851207 
