60 

C    -0.5674987    3.9920468    0.6872186 
C    -0.5674987    3.9920468   -0.6872186 
C     0.8360716    3.8621853   -1.1555909 
C     0.8360716    3.8621853    1.1555909 
C     1.6633582    3.6523118    0.0000000 
C     0.8411789    2.9892695    2.2439964 
C    -1.3794667    3.0781869    1.4171782 
C    -0.5713120    2.6569714    2.5394196 
C    -2.2041355    2.1112846    0.7320897 
C    -1.3794667    3.0781869   -1.4171782 
C    -2.2041355    2.1112846   -0.7320897 
C     0.8411789    2.9892695   -2.2439964 
C    -0.5713120    2.6569714   -2.5394196 
C     1.8167926    1.9093493   -2.3036645 
C     2.5371940    2.5316178    0.0000000 
C     2.6149914    1.6797562   -1.1575190 
C     1.8167926    1.9093493    2.3036645 
C     2.6149914    1.6797562    1.1575190 
C     1.4855806    0.7581248    3.0893437 
C    -0.8657179    1.4957298    3.2107958 
C     0.2146567    0.6813454    3.7098778 
C    -2.4864350    0.8566757    1.4491045 
C    -1.8869194    0.6031669    2.7127775 
C    -2.8799259   -0.3017404    0.7040292 
C    -2.4864350    0.8566757   -1.4491045 
C    -2.8799259   -0.3017404   -0.7040292 
C    -0.8657179    1.4957298   -3.2107958 
C    -1.8869194    0.6031669   -2.7127775 
C     1.4855806    0.7581248   -3.0893437 
C     0.2146567    0.6813454   -3.7098778 
C     1.8869194   -0.6031669   -2.7127775 
C     2.8799259    0.3017404   -0.7040292 
C     2.8799259    0.3017404    0.7040292 
C     2.4864350   -0.8566757   -1.4491045 
C     1.8869194   -0.6031669    2.7127775 
C     2.4864350   -0.8566757    1.4491045 
C    -0.2146567   -0.6813454    3.7098778 
C    -1.4855806   -0.7581248    3.0893437 
C     0.8657179   -1.4957298    3.2107958 
C    -2.6149914   -1.6797562    1.1575190 
C    -1.8167926   -1.9093493    2.3036645 
C    -2.6149914   -1.6797562   -1.1575190 
C    -2.5371940   -2.5316178    0.0000000 
C    -1.4855806   -0.7581248   -3.0893437 
C    -0.2146567   -0.6813454   -3.7098778 
C     0.8657179   -1.4957298   -3.2107958 
C    -1.8167926   -1.9093493   -2.3036645 
C     0.5713120   -2.6569714   -2.5394196 
C    -0.8411789   -2.9892695   -2.2439964 
C     2.2041355   -2.1112846   -0.7320897 
C     2.2041355   -2.1112846    0.7320897 
C     1.3794667   -3.0781869   -1.4171782 
C     0.5713120   -2.6569714    2.5394196 
C    -0.8411789   -2.9892695    2.2439964 
C     1.3794667   -3.0781869    1.4171782 
C    -1.6633582   -3.6523118    0.0000000 
C    -0.8360716   -3.8621853   -1.1555909 
C     0.5674987   -3.9920468   -0.6872186 
C    -0.8360716   -3.8621853    1.1555909 
C     0.5674987   -3.9920468    0.6872186 
