60 

C     0.2339668   -3.8673315   -1.5369113 
C    -0.8104422   -3.2199066   -2.1421313 
C    -1.9847460   -3.2171996   -1.2363593 
C    -0.2463792   -4.2327822   -0.1608466 
C    -1.5625896   -3.6697442    0.0478775 
C     0.7779014   -3.9415431    0.6978596 
C     1.5125886   -3.2169548   -1.4221172 
C     1.9410808   -3.4470570   -0.0732305 
C     1.7249166   -1.9141878   -1.9920186 
C    -0.6711573   -1.9005991   -2.6901288 
C     0.5945319   -1.2427040   -2.6533616 
C    -2.6476480   -2.0004153   -1.4178882 
C    -1.8658408   -1.1686115   -2.3440069 
C    -3.1978760   -1.3777950   -0.2898960 
C    -1.8133296   -2.8299246    1.2068593 
C    -2.7978495   -1.8038943    1.0278100 
C     0.5989688   -3.0806174    1.8455356 
C    -0.6999058   -2.5421002    2.1329748 
C     2.5448551   -2.4445753    0.6739390 
C     1.7633714   -2.2490043    1.9091727 
C     2.7471213   -1.0783518   -1.3708145 
C     3.1500309   -1.3330219    0.0168251 
C     2.8596653    0.2616019   -1.8432525 
C     0.5527483    0.2109059   -2.7688844 
C     1.7672826    0.9046191   -2.5199270 
C    -1.9166199    0.2391726   -2.2772131 
C    -0.7094646    0.9484003   -2.6696702 
C    -3.4247604    0.0421270   -0.3059651 
C    -2.9018578    0.8584933   -1.3668938 
C    -2.8461060   -0.6049595    1.8439711 
C    -3.3747159    0.5041513    1.0570700 
C    -0.7022434   -1.2755818    2.8165274 
C    -1.8109381   -0.3456900    2.7280201 
C     1.7287738   -0.9529980    2.4916924 
C     0.4826281   -0.4976367    2.9969408 
C     3.4648847   -0.2239302    0.8639361 
C     2.6497643    0.0158954    2.0274789 
C     3.4958958    1.2732815   -1.0358017 
C     3.7666775    1.0488272    0.3050492 
C     1.7669899    2.3275800   -2.1408003 
C     2.7772578    2.5387056   -1.1777232 
C    -0.6697714    2.3644854   -2.4031179 
C     0.5725188    3.0045864   -2.0068319 
C    -2.7825698    2.2523338   -1.0908927 
C    -1.7198492    2.9942760   -1.7050860 
C    -2.9992120    1.8266771    1.3288511 
C    -2.9025461    2.7362371    0.2543701 
C    -1.2901420    1.0097547    2.8775082 
C     0.1357843    0.9263879    2.9709243 
C    -1.8739124    2.0890810    2.2339748 
C     2.3157107    1.4537872    2.0473655 
C     3.0628693    2.0959093    1.0593486 
C     2.4141809    2.9903927    0.1326548 
C     0.9768584    1.8961770    2.3722791 
C     0.2998508    3.7545500   -0.7827876 
C    -1.1117172    3.8661685   -0.6955276 
C    -1.7675292    3.6249451    0.5075400 
C    -1.0465692    3.1351607    1.6516702 
C     1.0885468    3.4777034    0.3919640 
C     0.3800673    3.0067438    1.6020955 
