60 

C    -0.7080358    3.5663680    1.5271351 
C    -1.9359620    3.3292874    0.9404513 
C    -1.7872744    3.4933235   -0.5171437 
C     0.2685326    3.8373030    0.4386999 
C    -0.4013492    3.6686053   -0.8231744 
C     1.4792270    3.2355653    0.7494928 
C    -0.1245923    2.6258779    2.4024930 
C     1.3130409    2.6187579    2.0834259 
C    -0.7985088    1.4134999    2.7407827 
C    -2.6446209    2.1207146    1.2065819 
C    -2.1089988    1.1519025    2.1203160 
C    -2.5580734    2.4829731   -1.1284913 
C    -3.1918525    1.6816572   -0.0736465 
C    -2.0167640    1.8264889   -2.2423410 
C     0.2340090    2.8662822   -1.8337710 
C    -0.6443187    2.0688178   -2.6393079 
C     2.2576424    2.5656108   -0.2744746 
C     1.6202690    2.3855202   -1.6024461 
C     3.2031838    1.6171000    0.1984669 
C     2.1094327    1.5742384    2.4484106 
C     3.1942789    1.2021839    1.5858839 
C     0.0572804    0.2760050    3.1234531 
C     1.4823800    0.3636051    2.9829473 
C    -0.4670580   -1.0271938    3.1073876 
C    -2.5568896   -0.2379120    1.9540520 
C    -1.8309937   -1.2873960    2.6151289 
C    -3.4394797    0.3447997   -0.2981817 
C    -3.2588143   -0.6134906    0.7648070 
C    -2.3140825    0.4239950   -2.4824539 
C    -3.0552700   -0.2956586   -1.5468807 
C    -0.1816246    0.8684980   -3.2845151 
C    -1.1744424   -0.1870751   -3.1186294 
C     2.0838453    1.3140716   -2.3992007 
C     1.1705106    0.5637402   -3.2722205 
C     3.5215675    0.4381432   -0.5805105 
C     3.0503558    0.3478078   -1.8844951 
C     3.2695284   -0.2066488    1.6130304 
C     2.2373840   -0.7428847    2.4690327 
C     3.4646974   -0.7268402    0.2920896 
C     0.3437518   -2.1731141    2.7650821 
C     1.6331434   -1.9937073    2.1700209 
C    -1.8984290   -2.6185073    2.1686242 
C    -0.5444967   -3.1691013    2.2587657 
C    -3.0442733   -1.9108983    0.1455286 
C    -2.7245575   -1.6720872   -1.2550284 
C    -2.4118804   -2.9270643    0.8580894 
C    -0.7986048   -1.5324699   -2.8290387 
C    -1.6039763   -2.3023588   -1.8759920 
C     1.5318764   -0.8126635   -3.2368270 
C     2.6904381   -0.9440083   -2.3592708 
C     0.6102484   -1.8307155   -2.9445538 
C     2.8025211   -1.9263001   -0.0972991 
C     1.9379223   -2.6375455    0.8774426 
C     2.5037499   -2.0487166   -1.5008188 
C     1.2674532   -2.6879678   -1.9490046 
C    -0.2369558   -3.8186751    1.0738257 
C    -1.4060063   -3.6926289    0.1736950 
C    -0.9481466   -3.3395454   -1.0988244 
C     0.9533172   -3.5161325    0.3472409 
C     0.5247447   -3.3934356   -1.0538422 
