60 

C    -0.4331269   -4.0572833    0.9357999 
C    -0.9243237   -4.0554317   -0.3744487 
C    -2.2065504   -3.3669773   -0.3970923 
C    -1.3501221   -3.2263493    1.7250979 
C    -2.4283534   -2.7770248    0.8941487 
C    -0.5961620   -2.2953240    2.4505599 
C     0.9054718   -3.6369497    1.2098146 
C     0.8278686   -2.6272535    2.2616189 
C     1.7858966   -3.3927972    0.1389770 
C    -0.1177259   -3.5440924   -1.4546125 
C     1.2379235   -3.2987378   -1.2201700 
C    -2.2353940   -2.5368816   -1.5470433 
C    -0.9151254   -2.5440584   -2.1682180 
C    -2.9558360   -1.3623887   -1.4905064 
C    -2.9000790   -1.4316498    1.0009474 
C    -3.4516736   -0.8842821   -0.2048931 
C    -1.0223518   -0.9214265    2.5826021 
C    -2.2497389   -0.4897699    1.9306112 
C     0.0265104    0.0513860    2.8984053 
C     1.7876236   -1.6400625    2.3502220 
C     1.4082142   -0.2971970    2.7353419 
C     2.8079813   -2.3761448    0.2556485 
C     2.8689865   -1.5529229    1.3946280 
C     1.8763475   -2.1927470   -1.8799945 
C     2.9774162   -1.7466292   -1.0350161 
C    -0.3451436   -1.3387979   -2.6591509 
C     1.1104040   -1.2308106   -2.6172607 
C    -2.5091553   -0.1926668   -2.2231529 
C    -1.1718792   -0.1064960   -2.6912352 
C    -3.6392568    0.5054333   -0.3349461 
C    -3.1196002    0.9368834   -1.5991425 
C    -2.4968932    0.9528489    1.7859587 
C    -3.2275970    1.4417904    0.6520772 
C    -0.2583048    1.4241251    2.8267224 
C    -1.5691325    1.8857624    2.3749361 
C     0.7394309    2.3994660    2.4634431 
C     2.3373560    0.6242087    2.1561605 
C     3.2154310   -0.1478789    1.2815003 
C     1.9794010    1.9768018    1.8829159 
C     3.4610110   -0.4440363   -1.1295601 
C     3.5989899    0.3960879    0.0636326 
C     1.6837560    0.0686189   -2.7725187 
C     2.9218584    0.3870429   -2.1452199 
C    -0.5393104    1.2296274   -2.6576698 
C     0.8681944    1.2698545   -2.7716336 
C    -2.4811432    2.1908960   -1.4263541 
C    -2.7656675    2.6339385   -0.0612585 
C    -1.2040692    2.3879502   -2.0173385 
C    -1.4102818    3.1940846    1.8750241 
C     0.0256950    3.5131973    1.9198244 
C    -1.9023502    3.5214556    0.5643346 
C    -0.3927781    3.4175203   -1.3936325 
C     0.4116366    4.0432117    0.6973334 
C    -0.7835235    4.0171011   -0.1867864 
C     2.4157544    2.5774560    0.6129602 
C     3.1866564    1.7568592   -0.2816972 
C     2.8675058    1.7449219   -1.6666910 
C     1.6664517    2.3361204   -2.1468302 
C     1.5403692    3.5397066   -0.0051499 
C     1.0625076    3.2907108   -1.3620235 
