60 

C     0.3557083   -4.2059433   -0.3881588 
C     0.7079974   -3.9999987    0.9427253 
C     1.9915724   -3.3105605    1.0125602 
C     1.3679986   -3.5268452   -1.1953024 
C     2.3630764   -2.9358697   -0.3125222 
C     0.6997155   -2.7231265   -2.1216248 
C    -0.9485372   -3.8236006   -0.8562044 
C    -0.7545371   -2.9379624   -1.9869974 
C    -1.9365941   -3.4918030    0.0990135 
C    -0.2043885   -3.3481984    1.8686720 
C    -1.5183483   -3.1598899    1.4789816 
C     1.8720720   -2.2994818    2.0041094 
C     0.5182306   -2.2634783    2.5215775 
C     2.5963504   -1.1122715    1.8206931 
C     2.8853479   -1.6329495   -0.5878590 
C     3.2220432   -0.8282419    0.5449506 
C     1.2475181   -1.4417927   -2.5073902 
C     2.4439442   -0.9303374   -1.8095885 
C     0.3361393   -0.5226423   -3.0611272 
C    -1.6510648   -1.8635961   -2.2533429 
C    -1.1043072   -0.6827626   -2.8646359 
C    -2.9089835   -2.5256749   -0.2501626 
C    -2.7894408   -1.6979984   -1.3955470 
C    -2.2043870   -1.9271721    1.8788093 
C    -3.1734537   -1.6554980    0.8862563 
C    -0.0938721   -1.0082190    2.8105849 
C    -1.5133057   -0.8333260    2.5050311 
C     2.1157036    0.1074658    2.3609314 
C     0.7812923    0.1743034    2.8657431 
C     3.3529533    0.5955167    0.4527741 
C     2.6944892    1.2068513    1.5812930 
C     2.7367970    0.4437704   -1.9280091 
C     3.2847721    1.2194830   -0.7997427 
C     0.6225418    0.8831978   -3.1099597 
C     1.8613993    1.3505271   -2.6550547 
C    -1.6411603    0.6059368   -2.6372338 
C    -0.5804173    1.6101362   -2.8125860 
C    -3.1982273   -0.3475334   -1.0077401 
C    -3.4025400   -0.3415793    0.4276658 
C    -2.6698444    0.7981003   -1.6498864 
C    -2.0497905    0.5157857    2.3064949 
C    -3.0015988    0.7651887    1.2168071 
C     0.1837785    1.4535753    2.8629750 
C    -1.2222378    1.6112104    2.7026987 
C     2.0641373    2.4675990    1.4855899 
C     0.8673180    2.6410466    2.2741160 
C     2.7925503    2.5408904   -0.8711098 
C     1.9075794    2.6284267   -2.0299930 
C     2.1468587    3.1760745    0.2227281 
C    -0.5540518    2.8175821   -2.0703719 
C     0.7452931    3.3426888   -1.6738719 
C     0.9596322    3.8440820   -0.3080394 
C    -2.6579212    2.0107966   -0.9041383 
C    -2.9323886    2.0050744    0.4996628 
C    -1.6645442    3.0801037   -1.1779551 
C    -1.4119390    2.9343261    2.1454050 
C    -0.1106777    3.5565285    1.8801557 
C    -0.1356221    4.0649609    0.5176357 
C    -2.2258838    3.1176957    1.0501519 
C    -1.4647459    3.8094286   -0.0006377 
