60 

C    -4.4127124    0.8470435    0.4505615 
C    -4.2589331   -0.5841646    0.2248857 
C    -3.4703978   -1.1449238    1.2773357 
C    -3.6560595    1.1739282    1.6231405 
C    -3.2487326   -0.0621898    2.2436848 
C    -2.6322830    2.1331985    1.3145160 
C    -3.8002924    1.4873353   -0.6444319 
C    -2.6864497    2.2895908   -0.1255161 
C    -3.8587345   -0.7949838   -1.1287939 
C    -3.5120187    0.5195698   -1.6766747 
C    -3.0161535   -1.8804102   -1.4048612 
C    -2.3751862   -2.0621001    0.9964098 
C    -2.2487168   -2.5104404   -0.3360132 
C    -1.1635184   -2.0659378    1.8423105 
C    -2.1119183   -0.0559970    2.9971541 
C    -1.1784543   -1.2015667    2.9775184 
C    -1.3825452    2.0997973    2.0094171 
C    -1.2967580    1.1472715    3.0799933 
C    -0.1565641    2.4650556    1.3051039 
C    -1.5100373    2.4540107   -0.8640485 
C    -0.2619739    2.7533062   -0.1152960 
C    -2.3639371    0.6925160   -2.4890820 
C    -1.4413807    1.8000558   -2.1815870 
C    -2.1403856   -1.7588795   -2.5077740 
C    -1.7916103   -0.4990827   -3.0610341 
C    -0.9307296   -2.8552408   -0.8712843 
C    -0.9076967   -2.4760337   -2.2350157 
C     0.1565641   -2.4650556    1.3051039 
C     0.2619739   -2.7533062   -0.1152960 
C     1.3825452   -2.0997973    2.0094171 
C     0.0287514   -0.7293663    3.5130281 
C    -0.0287514    0.7293663    3.5130281 
C     1.2967580   -1.1472715    3.0799933 
C     1.1635184    2.0659378    1.8423105 
C     1.1784543    1.2015667    2.9775184 
C     2.1119183    0.0559970    2.9971541 
C     2.3751862    2.0621001    0.9964098 
C     0.9307296    2.8552408   -0.8712843 
C     2.2487168    2.5104404   -0.3360132 
C    -0.1867777    1.7900563   -2.8086881 
C     0.9076967    2.4760337   -2.2350157 
C    -0.3769683   -0.5700247   -3.4049587 
C     0.1867777   -1.7900563   -2.8086881 
C     0.3769683    0.5700247   -3.4049587 
C     1.5100373   -2.4540107   -0.8640485 
C     1.4413807   -1.8000558   -2.1815870 
C     2.6322830   -2.1331985    1.3145160 
C     2.6864497   -2.2895908   -0.1255161 
C     3.2487326    0.0621898    2.2436848 
C     3.4703978    1.1449238    1.2773357 
C     3.6560595   -1.1739282    1.6231405 
C     3.8002924   -1.4873353   -0.6444319 
C     4.2589331    0.5841646    0.2248857 
C     4.4127124   -0.8470435    0.4505615 
C     3.0161535    1.8804102   -1.4048612 
C     2.1403856    1.7588795   -2.5077740 
C     1.7916103    0.4990827   -3.0610341 
C     2.3639371   -0.6925160   -2.4890820 
C     3.8587345    0.7949838   -1.1287939 
C     3.5120187   -0.5195698   -1.6766747 
