60 

C     1.0773640   -4.5441195    0.8786014 
C    -0.2959210   -4.4014374    1.3403526 
C    -1.1324389   -4.5371107    0.2039525 
C     1.0542436   -4.4012400   -0.5857063 
C    -0.2615890   -4.4324466   -1.0292579 
C     1.8837640   -3.2846281   -0.9686927 
C     1.8204877   -3.4723852    1.3634633 
C     2.4651093   -2.7823181    0.2560763 
C    -0.3923915   -3.1862454    2.1167520 
C     0.9583206   -2.6313693    2.1902159 
C    -1.4742849   -2.2560714    1.9377199 
C    -2.1945189   -3.6729815    0.0217253 
C    -2.4484343   -2.5793270    0.9070780 
C    -0.8043925   -3.3889734   -1.8652084 
C    -2.0959840   -3.0914786   -1.3404865 
C     1.4273846   -2.3191998   -1.9302581 
C     0.0217689   -2.2817484   -2.3339635 
C     2.1321832   -1.0919995   -1.9239180 
C     2.8269709   -1.4390182    0.4055730 
C     2.9662156   -0.7039310   -0.8007559 
C     1.1985090   -1.2571251    2.2952737 
C     2.3586489   -0.6954105    1.5828093 
C    -1.2495870   -0.8518268    2.2513640 
C     0.0801055   -0.3651509    2.5657739 
C    -2.2029894    0.1427635    1.7590310 
C    -2.9159720   -1.4982247    0.0801051 
C    -2.5819914   -1.7955132   -1.3126186 
C    -2.9266983   -0.1824019    0.5258450 
C    -0.5929822   -0.9765370   -2.5653941 
C    -1.9514394   -0.7656535   -2.0838014 
C     1.6114568    0.1113251   -2.4910345 
C     0.2232925    0.2361222   -2.7495323 
C     3.1095651    0.7084851   -0.7934802 
C     2.3703146    1.2278732   -1.9290143 
C     2.5301592    0.6846741    1.5766036 
C     3.0471713    1.4021724    0.4229442 
C     0.3385112    1.0578519    2.6702456 
C     1.6065563    1.5757663    2.2559791 
C    -2.0133314    1.4997330    2.0307287 
C    -0.7645186    1.9758358    2.6235034 
C    -2.4891453    2.5453739    1.1359143 
C    -3.0098828    0.8149554   -0.4883867 
C    -2.3909761    0.5330686   -1.7749305 
C    -2.8300849    2.1897195   -0.1868388 
C    -0.3568812    1.5885797   -2.6427688 
C    -1.6961069    1.7164127   -2.1738932 
C    -2.1169082    2.8094189   -1.3043155 
C     1.8615384    2.4987804   -1.8924872 
C     0.4967165    2.7298925   -2.3680815 
C     2.5404477    2.7478149    0.4652755 
C     1.7358114    2.8970071    1.6900735 
C     2.0952135    3.3556400   -0.7260535 
C    -0.5808803    3.3296687    2.2775174 
C    -1.6597569    3.6981356    1.3454238 
C     0.6578233    3.8046873    1.7317698 
C    -1.2868711    3.9126418   -1.0903626 
C     0.0095851    3.8732346   -1.6959753 
C     0.9920135    4.2642300   -0.6652995 
C    -1.1115425    4.4010750    0.2762737 
C     0.3312489    4.5529335    0.5285506 
