60 

C     2.1068500   -3.8212478   -0.0040970 
C     1.7110273   -3.5154167    1.3581508 
C     0.2843603   -3.5595671    1.4507356 
C     0.9396644   -3.9737928   -0.7855871 
C    -0.1823340   -3.9796066    0.1217092 
C     0.9341139   -2.9877320   -1.8695526 
C     2.8081502   -2.6770350   -0.4972755 
C     2.1300719   -2.1927456   -1.6898353 
C     2.3860215   -2.3084946    1.7376041 
C     3.0716817   -1.7586390    0.5617462 
C     1.7229956   -1.4101013    2.5512161 
C    -0.4608938   -2.5389146    2.1596058 
C     0.3167037   -1.5571610    2.8454061 
C    -1.8073183   -2.1573692    1.7069767 
C    -1.3863971   -3.5221557   -0.3360379 
C    -2.3187388   -2.8276950    0.5454424 
C    -0.2754957   -2.3717591   -2.2732510 
C    -1.4830609   -2.8948620   -1.6683022 
C    -0.2619252   -0.9695348   -2.6959845 
C     2.1568506   -0.8388490   -1.9986230 
C     1.0091888   -0.2807107   -2.7243451 
C     3.0923207   -0.3665878    0.2977029 
C     2.8981531    0.0557087   -1.0912607 
C     2.0207959    0.0050319    2.4677957 
C     2.7122914    0.5705556    1.3493545 
C    -0.1889289   -0.2426014    3.1379317 
C     0.9234273    0.6975450    3.0592639 
C    -2.3274529   -0.7917439    2.0081228 
C    -1.4928141    0.1559727    2.7510421 
C    -3.3053426   -0.2224193    1.1303183 
C    -3.2383952   -2.1805674   -0.3228148 
C    -2.6412772   -2.1330432   -1.6697332 
C    -3.7108316   -0.9161081   -0.0408243 
C    -1.4792514   -0.1493662   -2.5947156 
C    -2.6724530   -0.7685802   -2.1265923 
C    -3.5021862   -0.0401025   -1.2087796 
C    -1.3771112    1.3124844   -2.4269628 
C     1.0177954    1.1025328   -2.9761832 
C    -0.1813294    1.9215391   -2.8550406 
C     2.8529796    1.4216933   -1.3569547 
C     2.1026174    1.9084902   -2.5130658 
C     2.4812410    1.9858150    1.0303539 
C     2.7181577    2.4128543   -0.3142272 
C     0.7203666    2.0534272    2.7870268 
C     1.5261734    2.7306161    1.7940187 
C    -1.6787805    1.5822407    2.5572564 
C    -0.6196544    2.5143899    2.7078462 
C    -3.2050588    1.1772650    0.7207512 
C    -3.1667714    1.2321483   -0.7490157 
C    -2.1642712    2.0066720   -1.4049647 
C    -2.4705003    2.0668447    1.4421073 
C     0.6403572    3.6871213    1.1252928 
C    -0.6768417    3.4945761    1.6374667 
C    -1.5533199    3.1066607   -0.6631745 
C    -1.7397423    3.1418453    0.7682664 
C     0.2261442    3.2231480   -2.3860080 
C     1.6601346    3.2340750   -2.2749425 
C     1.9617224    3.5073067   -0.8977652 
C    -0.3433511    3.6890189   -1.1569359 
C     0.7794712    3.9569304   -0.2376587 
