60 

C    -0.6591371   -3.3115542    1.9610604 
C     0.2349198   -2.7063381    2.8175699 
C     1.5868890   -2.7615167    2.2275442 
C     0.0883202   -3.7354764    0.7702153 
C     1.4635662   -3.2726634    0.9092640 
C    -0.6653519   -3.3866449   -0.3385373 
C    -1.8518298   -2.6231597    1.5374009 
C    -1.9560903   -2.8195604    0.1214319 
C    -2.2139698   -1.3707316    2.1319856 
C    -0.0003764   -1.3931775    3.3347689 
C    -1.2619365   -0.7499655    3.0840065 
C     2.1875588   -1.5078783    2.4787641 
C     1.2414614   -0.6590897    3.2173557 
C     2.9675077   -0.9343081    1.4774401 
C     2.1062572   -2.6076625   -0.1890204 
C     2.9944211   -1.5415958    0.1604646 
C    -0.0301652   -2.9023852   -1.5512507 
C     1.4078878   -2.5362317   -1.4898904 
C    -0.8842839   -2.2946309   -2.4857997 
C    -2.6603914   -1.9232442   -0.6988403 
C    -2.2272911   -1.8079364   -2.0679130 
C    -3.0089936   -0.5014941    1.3156145 
C    -3.2589498   -0.7851507   -0.0730437 
C    -2.9675077    0.9343081    1.4774401 
C    -1.2414614    0.6590897    3.2173557 
C    -2.1875588    1.5078783    2.4787641 
C     1.2619365    0.7499655    3.0840065 
C     0.0003764    1.3931775    3.3347689 
C     3.0089936    0.5014941    1.3156145 
C     2.2139698    1.3707316    2.1319856 
C     3.2910543   -0.4880214   -0.7731301 
C     3.2589498    0.7851507   -0.0730437 
C     1.8838032   -1.6146225   -2.4516518 
C     2.8480989   -0.5840577   -2.0827072 
C    -0.3772883   -1.3750314   -3.4815673 
C     0.9886214   -1.0324069   -3.4600898 
C    -2.4705282   -0.6265707   -2.7685537 
C    -1.3386329   -0.3330050   -3.6328911 
C    -3.2910543    0.4880214   -0.7731301 
C    -2.9944211    1.5415958    0.1604646 
C    -2.8480989    0.5840577   -2.0827072 
C    -2.1062572    2.6076625   -0.1890204 
C    -1.5868890    2.7615167    2.2275442 
C    -0.2349198    2.7063381    2.8175699 
C    -1.4635662    3.2726634    0.9092640 
C     1.8518298    2.6231597    1.5374009 
C     0.6591371    3.3115542    1.9610604 
C    -0.0883202    3.7354764    0.7702153 
C     2.6603914    1.9232442   -0.6988403 
C     1.9560903    2.8195604    0.1214319 
C     0.6653519    3.3866449   -0.3385373 
C     2.4705282    0.6265707   -2.7685537 
C     1.3386329    0.3330050   -3.6328911 
C     2.2272911    1.8079364   -2.0679130 
C    -0.9886214    1.0324069   -3.4600898 
C    -1.8838032    1.6146225   -2.4516518 
C    -1.4078878    2.5362317   -1.4898904 
C     0.0301652    2.9023852   -1.5512507 
C     0.3772883    1.3750314   -3.4815673 
C     0.8842839    2.2946309   -2.4857997 
