60 

C     0.4664051   -4.1906502    1.2278522 
C     1.6720012   -3.4799967    1.3568864 
C     1.4733621   -2.2956347    2.1856976 
C    -0.5444875   -3.4444452    1.9171810 
C     0.0732709   -2.2660048    2.5123951 
C    -1.5910872   -3.1579987    1.0198739 
C     0.1324155   -4.1309393   -0.1923498 
C    -1.1495472   -3.5773169   -0.3353302 
C     2.2594083   -3.2721470    0.0536574 
C     1.2119754   -3.5343689   -0.9362627 
C     3.1105161   -2.1967006   -0.0995731 
C     2.2161122   -1.0925063    1.9477196 
C     3.1885109   -1.1224615    0.9098233 
C     1.6190876    0.1849016    2.3327642 
C    -0.6095961   -1.0212224    2.5896227 
C     0.2179860    0.1713574    2.7386097 
C    -2.4033232   -1.9993085    1.1860373 
C    -1.9656489   -0.9216412    2.0594669 
C    -3.2286442   -1.7157251    0.0674984 
C    -1.4800455   -2.7211747   -1.4231233 
C    -2.7264517   -2.0628744   -1.2736015 
C     0.9441069   -2.5385651   -1.9448513 
C    -0.4158340   -2.1014522   -2.2069493 
C     3.1594374   -1.5616018   -1.3680203 
C     2.0005303   -1.6029547   -2.2134360 
C     3.5315353    0.0944046    0.2202511 
C     3.5616068   -0.2026585   -1.1880122 
C     2.2156202    1.4351840    1.8501137 
C     3.0890424    1.3690083    0.6717421 
C     1.5169575    2.6706425    2.1012465 
C    -0.4776992    1.4092559    2.8051157 
C     0.2034557    2.6240946    2.6323227 
C    -2.5430017    0.3923707    1.8288098 
C    -1.8130201    1.5256880    2.2355705 
C    -3.9429914   -0.4797667   -0.0421960 
C    -3.4805239    0.6112226    0.7659673 
C    -3.0583478   -0.9628263   -2.0896266 
C    -3.9868091   -0.0782044   -1.4154345 
C    -0.6574493   -0.7346534   -2.6887220 
C    -1.9670855   -0.2021669   -2.6384113 
C     1.7383179   -0.2406253   -2.6259791 
C     2.8001023    0.6037407   -2.0660674 
C     0.4213195    0.2483391   -2.7497586 
C     2.8993454    2.3643587   -0.3642487 
C     2.5368972    1.8990480   -1.6932768 
C     1.5069370    3.7381021    1.1101112 
C     2.0930243    3.5022354   -0.1171481 
C    -0.6683258    3.4978769    1.8305553 
C    -1.8410787    2.7734089    1.4913825 
C     0.0996460    4.1172737    0.8616106 
C    -3.2581004    1.7364070   -0.1356112 
C    -3.4242020    1.2191689   -1.4680079 
C    -2.2110511    1.1857004   -2.2549182 
C    -2.2942271    2.7269511    0.1307002 
C     0.1640049    1.6749489   -2.4388570 
C     1.2579918    2.5038057   -2.0434042 
C     1.0474575    3.5853210   -1.1626498 
C    -0.1986580    3.8595731   -0.5427910 
C    -1.1582554    2.0955057   -1.9996259 
C    -1.3328959    3.0886972   -0.9223408 
