60 

C     0.4681258   -4.6452362    0.0000000 
C     1.6233246   -3.8614231    0.0000000 
C     1.6878615   -3.0786308    1.2237556 
C    -0.3059253   -4.2533804    1.1759064 
C     0.4338088   -3.2701783    1.9331121 
C    -1.5910879   -3.9001461    0.7548062 
C    -0.3059253   -4.2533804   -1.1759064 
C    -1.5910879   -3.9001461   -0.7548062 
C     1.6878615   -3.0786308   -1.2237556 
C     0.4338088   -3.2701783   -1.9331121 
C     2.3936774   -1.8539826   -1.2522631 
C     2.3936774   -1.8539826    1.2522631 
C     2.9494687   -1.3019740    0.0000000 
C     1.9885316   -0.9368992    2.2532492 
C    -0.2145146   -2.1085030    2.4761489 
C     0.6481918   -1.0129822    2.7832921 
C    -2.2123599   -2.7031133    1.1813441 
C    -1.5930731   -1.7955659    2.1148564 
C    -2.2123599   -2.7031133   -1.1813441 
C    -2.8293582   -2.1212175    0.0000000 
C    -0.2145146   -2.1085030   -2.4761489 
C    -1.5930731   -1.7955659   -2.1148564 
C     1.9885316   -0.9368992   -2.2532492 
C     0.6481918   -1.0129822   -2.7832921 
C     2.3859133    0.4414274   -2.2206270 
C     3.3784132    0.0278994    0.0000000 
C     3.1968423    0.8944508   -1.1731715 
C     2.3859133    0.4414274    2.2206270 
C     3.1968423    0.8944508    1.1731715 
C     0.1843255    0.3264457    2.9439936 
C     1.2885630    1.2503307    2.6822410 
C    -2.0420845   -0.4001622    2.1306292 
C    -1.1705433    0.6634902    2.6532204 
C    -3.2128173   -0.8199688    0.0000000 
C    -3.0134027    0.0086030    1.1670283 
C    -2.0420845   -0.4001622   -2.1306292 
C    -3.0134027    0.0086030   -1.1670283 
C     0.1843255    0.3264457   -2.9439936 
C     1.2885630    1.2503307   -2.6822410 
C    -1.1705433    0.6634902   -2.6532204 
C     1.0635143    2.5556598   -2.1795128 
C     3.0256405    2.2300507   -0.7251583 
C     3.0256405    2.2300507    0.7251583 
C     1.9773504    3.0724777   -1.1812187 
C     1.0635143    2.5556598    2.1795128 
C     1.9773504    3.0724777    1.1812187 
C     1.4409229    3.7491257    0.0000000 
C    -1.4213060    2.0262084    2.3249866 
C    -0.3105614    2.9919764    2.1222064 
C    -3.1476208    1.3684670    0.7324671 
C    -3.1476208    1.3684670   -0.7324671 
C    -2.4783697    2.3887899    1.4245530 
C    -1.4213060    2.0262084   -2.3249866 
C    -0.3105614    2.9919764   -2.1222064 
C    -2.4783697    2.3887899   -1.4245530 
C     0.1245701    4.1947434    0.0000000 
C    -0.7035337    3.9345297    1.1597992 
C    -2.0411625    3.5496624    0.6932301 
C    -0.7035337    3.9345297   -1.1597992 
C    -2.0411625    3.5496624   -0.6932301 
