60 

C    -1.5466493    3.7873786   -0.8770926 
C    -0.3045488    4.0722783   -0.3535307 
C    -0.3199432    3.8139255    1.1001973 
C    -2.4125552    3.4107835    0.2537509 
C    -1.5611436    3.1944757    1.4127666 
C    -3.2123544    2.3797359   -0.1845436 
C    -1.6630223    2.7660573   -1.9007848 
C    -2.8211326    2.0108323   -1.5607817 
C    -0.5092815    2.0371794   -2.3505763 
C     0.8803754    3.4940575   -0.8824663 
C     0.8221411    2.4914799   -1.9124959 
C     0.9229695    3.2619886    1.4500711 
C     1.7693204    3.2868986    0.2486575 
C     0.9827176    2.1321813    2.3249252 
C    -1.5477019    1.9075119    2.0847219 
C    -0.2705970    1.4358212    2.6185737 
C    -3.3587873    1.1718577    0.5452337 
C    -2.5615443    0.9007719    1.7056518 
C    -2.9267904    0.6172768   -1.6996273 
C    -3.5144041    0.1214990   -0.4582109 
C    -0.7013612    0.6059373   -2.7016247 
C    -1.9001550   -0.1394652   -2.3283285 
C     0.4550463   -0.1546476   -2.9707454 
C     1.9659655    1.5871326   -2.0175799 
C     1.7709921    0.3486014   -2.7111090 
C     2.8408439    2.4314863    0.1488171 
C     3.0122407    1.6177182   -1.0434446 
C     2.2166396    1.3862410    2.2797161 
C     3.1820868    1.6420338    1.2922905 
C     2.2436858   -0.0636868    2.5028156 
C    -0.1659880    0.0471963    2.9680131 
C     1.0835941   -0.6836847    2.8807453 
C    -2.3895363   -0.5097593    2.0508606 
C    -1.2117352   -0.8983006    2.7442303 
C    -3.3784806   -1.1812168   -0.1292279 
C    -2.9965203   -1.5361366    1.2290718 
C    -1.8465622   -1.5949686   -2.0425007 
C    -2.7355282   -2.1101443   -1.0541655 
C     0.4784203   -1.6295080   -2.8438227 
C    -0.6134925   -2.3458533   -2.2933650 
C     2.5825104   -0.7941536   -2.4221855 
C     1.8132062   -2.0015992   -2.5455590 
C     3.6499996    0.3763144   -0.6066434 
C     3.6938754    0.3640479    0.8078267 
C     3.1321558   -0.7078705    1.5476096 
C     3.3802899   -0.8448730   -1.2518855 
C     2.0831614   -2.7851398   -1.3781260 
C     2.7332894   -1.9333755    0.8973905 
C     2.9929416   -2.0295160   -0.5033059 
C     0.8138197   -2.0570558    2.4787072 
C    -0.6069905   -2.2295319    2.5680708 
C     1.5958212   -2.6849971    1.4581619 
C    -2.4668335   -2.8386929    1.1526253 
C    -2.3722011   -3.2404742   -0.2576249 
C    -1.2427251   -3.2167560    1.8031809 
C    -0.2689350   -3.4834821   -1.4477721 
C     1.0587288   -3.5327960   -0.8449682 
C     0.8940188   -3.6210987    0.6111430 
C    -1.1696375   -3.9101056   -0.4431649 
C    -0.4537195   -3.9418102    0.8514334 
