60 

C     0.5723039   -4.4315852    0.1526648 
C     1.5425597   -3.8550487   -0.7271675 
C     2.3993951   -3.0023146    0.0241723 
C     0.6847922   -3.7663997    1.4231419 
C     1.8266784   -2.9279051    1.3859569 
C    -0.5841502   -3.1934390    1.8023836 
C    -0.7265555   -4.1311024   -0.3436093 
C    -1.5134788   -3.5714550    0.7308117 
C     0.8101508   -3.2458203   -1.8242547 
C    -0.6297780   -3.4107224   -1.5913068 
C     1.2530518   -2.0555163   -2.3771746 
C     2.9364916   -1.8156863   -0.5688596 
C     2.4168865   -1.3875306   -1.8489764 
C     3.3492359   -0.8003707    0.3190108 
C     1.8218715   -1.6978011    2.0860596 
C     2.8588572   -0.7946275    1.6882890 
C    -0.6701505   -1.8948512    2.3817413 
C     0.5737893   -1.1466190    2.6182916 
C    -1.9348492   -1.1551160    2.2090704 
C    -2.5438317   -2.7395455    0.3842836 
C    -2.9143629   -1.6479099    1.2722465 
C    -1.5478633   -2.3613424   -1.8804133 
C    -2.6732743   -2.2632025   -0.9930029 
C     0.3133557   -1.0228610   -2.7914688 
C    -1.0736756   -1.1049508   -2.5204265 
C     2.3063373    0.0068452   -2.1670949 
C     1.0124705    0.2300555   -2.7747026 
C     3.5060802    0.5864945   -0.1077506 
C     2.9146025    1.0160204   -1.3636967 
C     2.8392200    0.5457149    2.1055030 
C     3.3477776    1.4005730    1.0320805 
C     0.5044348    0.2945524    2.8360267 
C     1.6590661    1.1260752    2.5926155 
C    -1.9531580    0.2502383    2.4477006 
C    -0.7450855    0.9673942    2.7547742 
C    -2.8084582    1.1596426    1.7161216 
C    -3.6517633   -0.7292381    0.4866695 
C    -3.3748013   -1.0535540   -0.9134375 
C    -3.5608414    0.6628925    0.6427787 
C    -1.7968636    0.1675379   -2.3666030 
C    -3.0036872    0.1367605   -1.5885297 
C    -3.3327256    1.2387105   -0.6949227 
C     0.3430957    1.4771758   -2.6980023 
C    -1.1096307    1.4554642   -2.5064027 
C     2.3533674    2.3132502   -1.4320172 
C     1.1360311    2.5801356   -2.2242058 
C     2.5968352    2.5942250    1.0046991 
C     1.5450021    2.4821741    2.0105852 
C     2.2908769    3.1684870   -0.2536143 
C    -0.8616277    2.3334384    2.2666060 
C    -2.1166650    2.4232149    1.5835723 
C     0.2862701    3.0789881    1.8073104 
C    -2.6878765    2.4333345   -0.8226960 
C    -1.6960177    2.6170048   -1.8775562 
C    -2.2105463    3.1571940    0.3687424 
C     0.4974605    3.7020138   -1.6546470 
C     1.1333390    3.9673686   -0.3575538 
C     0.1193483    3.9610208    0.6478410 
C    -0.8877563    3.7070614   -1.4703906 
C    -1.1415604    3.9654564   -0.0412666 
