60 

C    -0.4138289   -4.6238094   -0.2038118 
C     0.6187926   -4.1816130   -1.1028036 
C     1.7411682   -3.8609766   -0.3172014 
C    -0.0083205   -4.2483505    1.1646763 
C     1.3323641   -3.8650371    1.1188189 
C    -0.9684569   -3.3226754    1.7067936 
C    -1.5766198   -3.8873665   -0.4881201 
C    -2.0518536   -3.2544989    0.7239855 
C     0.0567486   -3.1187292   -1.9567827 
C    -1.3519609   -3.0216156   -1.6333661 
C     0.7928586   -1.9341123   -2.2547074 
C     2.4697664   -2.6940571   -0.5561557 
C     2.1294984   -1.8323964   -1.6686814 
C     1.7666772   -2.6377806    1.6781824 
C     2.6817472   -2.0306402    0.7210408 
C    -0.5604119   -2.0945684    2.3292274 
C     0.8673915   -1.7478329    2.3488512 
C    -1.5402141   -0.9949753    2.3607083 
C    -2.8114344   -2.1204982    0.5841055 
C    -2.7067995   -1.0435781    1.5380183 
C    -2.0399452   -1.7962746   -1.7425445 
C    -3.0045468   -1.5060427   -0.7142723 
C     0.0757308   -0.6804284   -2.5673429 
C    -1.3665158   -0.6624359   -2.3905235 
C     0.7929334    0.5964030   -2.6124759 
C     2.7540526   -0.5944980   -1.6490260 
C     2.1872462    0.5792772   -2.2862120 
C     3.0912339   -0.6997466    0.7935568 
C     3.4758651   -0.1279020   -0.4716192 
C     1.2904992   -0.3514187    2.4841460 
C     2.5033664    0.1538009    1.8237674 
C    -1.1001781    0.3066783    2.7071168 
C     0.3038048    0.6023434    2.8394567 
C    -1.7952579    1.5163731    2.2978941 
C    -3.2523992    0.1462358    0.9367396 
C    -3.4152265   -0.1678119   -0.4757460 
C    -2.8618037    1.4530549    1.3407493 
C    -2.0219110    0.5861804   -2.3547536 
C    -3.1394107    0.8114796   -1.4352951 
C     0.0990898    1.8855304   -2.4796289 
C    -1.3201118    1.8486316   -2.4932030 
C     0.7462135    3.0192678   -1.7665666 
C     2.8384911    1.7184375   -1.7513510 
C     3.6252514    1.2588672   -0.5990560 
C     2.1072400    2.8754219   -1.3637150 
C     2.6831810    1.5637022    1.6729149 
C     3.3035494    2.0872783    0.4817984 
C     2.5074142    3.2015895   -0.0112351 
C     0.4651448    2.0187621    2.6049545 
C    -0.8288776    2.5836108    2.2658568 
C     1.6306176    2.4957374    2.0239492 
C     1.5311489    3.5150929    0.9630038 
C    -0.0605619    3.8443430   -0.9018443 
C    -0.9163424    3.6007240    1.2818243 
C     0.2843756    3.9484600    0.5297295 
C    -2.9575795    2.5158045    0.3569921 
C    -3.1149860    2.1583422   -1.0323605 
C    -2.0871134    2.8490810   -1.8074824 
C    -2.0131595    3.5848425    0.3833684 
C    -1.4676354    3.7763171   -0.9743425 
