60 

C    -0.2499760   -4.6816706    0.2442925 
C     0.9183024   -4.3243162   -0.5310909 
C     1.8831637   -3.8364181    0.3672227 
C    -0.0900445   -4.0781944    1.5720657 
C     1.2210710   -3.6260901    1.6876430 
C    -1.1698665   -3.1306453    1.7990892 
C    -1.3561206   -4.0533892   -0.3430590 
C    -2.0828824   -3.3206667    0.6805761 
C     0.4897245   -3.4356993   -1.6130593 
C    -0.9547168   -3.3172222   -1.5375954 
C     1.2520070   -2.3027311   -1.9895010 
C     2.6120752   -2.6838095    0.0579301 
C     2.4750041   -2.0441319   -1.2149319 
C     1.4933892   -2.2881143    2.0812002 
C     2.5287271   -1.7906291    1.2109859 
C    -0.9409974   -1.7944457    2.2806689 
C     0.4448254   -1.3604273    2.4592072 
C    -1.9613505   -0.7699253    2.0076396 
C    -2.8775760   -2.2958324    0.2763223 
C    -3.0183649   -1.1216624    1.1099277 
C    -1.6346532   -2.1240958   -1.8921076 
C    -2.8286462   -1.8403673   -1.1281816 
C     0.5494946   -1.1355011   -2.5755796 
C    -0.8950313   -0.9940178   -2.4696685 
C     1.3102574    0.0484599   -2.7876887 
C     3.0669767   -0.7636799   -1.2820185 
C     2.6230336    0.1543968   -2.2531947 
C     2.8220360   -0.4234651    1.1292256 
C     3.3818026    0.0227252   -0.1007995 
C     0.7613172    0.0451311    2.4875813 
C     2.0662285    0.4865228    1.9750511 
C    -1.6639433    0.6469397    2.1909964 
C    -0.3177153    1.0300787    2.6116463 
C    -2.4716077    1.6592071    1.4940347 
C    -3.5732856   -0.1256540    0.2676600 
C    -3.3322686   -0.5535775   -1.1229525 
C    -3.2822242    1.2140913    0.3976306 
C    -1.4764129    0.3584434   -2.4534551 
C    -2.7321488    0.5343477   -1.7983099 
C    -2.9630472    1.7063647   -0.9681279 
C     0.7463106    1.3827713   -2.7349085 
C    -0.6289945    1.5662500   -2.5374281 
C     2.8564110    1.5198755   -1.8069842 
C     3.3142401    1.4312216   -0.4576226 
C     1.7211616    2.2907182   -2.1077531 
C     2.2873194    1.8629037    1.7591890 
C     2.8236500    2.3389964    0.4718457 
C     0.0286928    2.4217315    2.5975335 
C     1.3571317    2.8092612    2.2135125 
C    -2.0060587    3.0059623    1.3665010 
C    -0.8603293    3.4252475    2.0681476 
C    -2.2336957    2.8538125   -1.1032424 
C    -1.0247991    2.8140905   -1.9187440 
C    -2.0194464    3.6695468    0.0492760 
C     1.3059936    3.3535863   -1.2284015 
C     1.9797491    3.4419703    0.0480929 
C     1.2447204    3.8695504    1.2222202 
C    -0.0816983    4.2737469    1.1602759 
C    -0.0879301    3.7046217   -1.2808855 
C    -0.7489848    4.2738065   -0.1079000 
