60 

C     0.6556568    4.7621121    0.6029575 
C     1.1071249    4.5877469   -0.7114733 
C    -0.0157636    4.1937299   -1.5703456 
C    -0.7554140    4.4644964    0.6473517 
C    -1.1941904    4.1526371   -0.7276558 
C    -0.9400290    3.4727942    1.6357460 
C     1.3734425    3.8399072    1.4730918 
C     0.4071502    3.0804960    2.1613959 
C     2.1234723    3.5807591   -0.7469944 
C     2.2953881    3.0928636    0.6405546 
C     0.3793063    3.0199471   -2.2526719 
C     1.7200505    2.6398555   -1.7325750 
C    -0.5375996    1.9629192   -2.5187405 
C    -2.0744753    3.0955422   -0.9128869 
C    -1.8464832    2.1187216   -1.9504332 
C    -1.9448372    2.4575680    1.4935137 
C    -2.6148666    2.3360038    0.2317912 
C    -1.7812094    1.2588860    2.2381983 
C     0.6573405    1.7181012    2.4993629 
C    -0.4618314    0.8997807    2.7905000 
C     2.4874872    1.7252196    0.8453539 
C     1.8139709    1.0295338    1.9490528 
C     2.0639125    1.2808279   -1.6014700 
C     2.7191878    0.9132269   -0.3502281 
C    -0.0283429    0.6067796   -2.7299941 
C     1.3281088    0.2510357   -2.3099169 
C    -0.9579742   -0.4538837   -2.7564608 
C    -2.6077223    0.9488697   -1.6094503 
C    -3.0436417    1.0546115   -0.2240136 
C    -2.2577235   -0.2744183   -2.1192435 
C    -2.4359849    0.0492584    1.8901049 
C    -3.0283475   -0.1174393    0.5977411 
C    -0.3697313   -0.5086625    2.8780264 
C    -1.6532621   -1.0376524    2.4572239 
C     1.9186859   -0.4062298    2.0603749 
C     0.8289417   -1.2277773    2.5762468 
C     3.0067613   -0.4097820   -0.1616324 
C     2.8240195   -1.0519932    1.1519293 
C     1.7038876   -1.1414745   -2.1321944 
C     2.7396910   -1.3999635   -1.1680692 
C    -0.5971230   -1.8321546   -2.5978158 
C     0.7512258   -2.2345641   -2.3805166 
C    -2.5909336   -1.4904699   -1.4261283 
C    -2.9468953   -1.4333581   -0.0375792 
C    -1.6991301   -2.5068470   -1.9165127 
C    -1.7560042   -2.3124944    1.9882138 
C    -2.5248281   -2.5621652    0.7567966 
C     0.7169778   -2.6613989    2.2426724 
C    -0.6095458   -3.2086401    2.0352699 
C     2.8116152   -2.4235686    0.9491710 
C     2.8560478   -2.6588060   -0.5168969 
C     1.7896167   -3.2799201    1.4828789 
C     0.9451593   -3.5391291   -1.7567688 
C     2.0351550   -3.7209549   -0.8197087 
C     1.4933270   -4.2491559    0.4515191 
C    -1.4745340   -3.6819721   -1.1806923 
C    -1.9628365   -3.7071593    0.1784195 
C    -0.8560527   -4.1887351    1.0257954 
C    -0.1658908   -4.2394317   -1.2024758 
C     0.1804932   -4.6340293    0.1902912 
