60 

C     0.7536865    3.8871760    1.5133546 
C    -0.6110185    3.8961457    1.3123803 
C    -0.9045958    4.0900023   -0.1222865 
C     1.3616641    4.0620398    0.1734514 
C     0.3213462    3.9600914   -0.8349930 
C     2.4325264    3.2131583    0.1042176 
C     1.3853139    2.7436400    2.1508259 
C     2.5526602    2.4710571    1.3835205 
C     0.6151870    1.6221606    2.6019655 
C    -1.4435983    2.8425078    1.7887725 
C    -0.8527671    1.7425578    2.5118078 
C    -2.0434332    3.3330428   -0.4350337 
C    -2.4426916    2.5776386    0.7694311 
C    -2.0660157    2.6613611   -1.6670751 
C     0.4212321    2.9345690   -1.8720599 
C    -0.8006777    2.3888503   -2.3391214 
C     2.6181030    2.2596655   -0.9526914 
C     1.6025721    2.0439347   -1.9310260 
C     3.0084190    1.1851955    1.1199393 
C     3.2702283    1.1222844   -0.3265841 
C     1.2115141    0.2744380    2.5288771 
C     2.4305697    0.0494524    1.7663424 
C     0.3692479   -0.8882073    2.7937689 
C    -1.6221399    0.5626155    2.5374274 
C    -1.0379384   -0.7222407    2.8306278 
C    -3.0564418    1.3022469    0.6570332 
C    -2.7340656    0.3478075    1.6597142 
C    -2.8714995    1.4948897   -1.7829877 
C    -3.3533129    0.7940838   -0.6676994 
C    -0.8898230    1.0183305   -2.8752570 
C    -2.1924509    0.5330909   -2.6352883 
C     1.5004202    0.6834348   -2.5002983 
C     0.2160205    0.1212512   -2.8910433 
C     3.3042352   -0.0745120   -0.9545387 
C     2.5146547   -0.2584408   -2.1578091 
C     2.7296747   -1.2590280    1.1704695 
C     3.2666813   -1.3098900   -0.1755880 
C     0.8498856   -2.2206622    2.4706186 
C     2.0004381   -2.3932089    1.5912197 
C    -0.0509674   -3.2881065    2.2475635 
C    -1.9249941   -1.7433825    2.3043686 
C    -2.8440595   -1.0811278    1.4305039 
C    -1.4321482   -3.0262095    2.0061758 
C    -3.1931674   -0.6432314   -0.9431264 
C    -2.4262828   -0.7753681   -2.1606640 
C    -3.0235958   -1.5791070    0.0928234 
C    -0.0738969   -1.3224723   -2.7604521 
C    -1.4060110   -1.7601741   -2.3027912 
C     2.2779971   -1.6470946   -2.2314413 
C     2.8452015   -2.3188730   -1.0617278 
C     1.0052685   -2.2085682   -2.4826776 
C     1.7274823   -3.5238756    0.7077602 
C     0.4727889   -4.0665242    1.1094609 
C     1.9846556   -3.3764052   -0.6781136 
C     0.8653052   -3.3924615   -1.6227529 
C    -1.7724875   -3.6250878    0.7377253 
C    -2.3580045   -2.8230446   -0.2586259 
C    -1.5243956   -2.8996231   -1.4667607 
C    -0.5607637   -4.2326761    0.1867478 
C    -0.4017357   -3.7591168   -1.1683802 
