60 

C    -0.3651151   -5.0893362    0.0728115 
C    -1.5876700   -4.5782640    0.4056970 
C    -2.0717026   -3.7250386   -0.6929480 
C    -0.0018719   -4.5655416   -1.2755926 
C    -1.0243946   -3.6177131   -1.7007131 
C     1.2904039   -4.0869807   -1.1736542 
C     0.6232968   -4.5819131    1.0478544 
C     1.6894271   -4.1044631    0.2956939 
C    -1.4596875   -3.7309529    1.6061819 
C    -0.0386304   -3.6380055    1.9445125 
C    -2.5422067   -2.5536884   -0.1091366 
C    -2.1421523   -2.5507833    1.3438131 
C    -2.4650209   -1.3331260   -0.7987391 
C    -0.6593884   -2.3110849   -2.1858336 
C    -1.5588963   -1.2017645   -1.9133596 
C     1.6927091   -2.8391695   -1.7066688 
C     0.7517495   -1.9223965   -2.3021814 
C     2.3210114   -2.8825762    0.5754729 
C     2.5917954   -2.2697809   -0.7226447 
C     0.5318513   -2.3449411    2.1986964 
C     1.8350610   -2.0001671    1.6074048 
C    -1.7086812   -1.3171394    1.8879948 
C    -0.3690666   -1.2027915    2.3993793 
C    -2.8185009   -0.1756188   -0.0116394 
C    -2.3897040   -0.1509923    1.3889645 
C    -2.9371295    1.0211899   -0.6891458 
C    -1.2319980    0.1487691   -2.3151733 
C    -2.1798923    1.1553666   -1.9523903 
C     1.1289169   -0.5045306   -2.3823860 
C     0.1376226    0.5521407   -2.5545451 
C     2.9235150   -0.9637549   -0.7837300 
C     2.3587792   -0.0953831   -1.7902681 
C     2.2790649   -0.6202058    1.5609061 
C     3.0551157   -0.1989458    0.4297558 
C     0.1480739    0.1395099    2.5961047 
C     1.5398379    0.4297963    2.2654866 
C    -2.0608373    1.0883749    1.9355549 
C    -0.7696228    1.2296813    2.5919027 
C    -2.9147170    2.2956094   -0.0149383 
C    -2.4011414    2.3376617    1.3034226 
C    -1.8771404    2.5014383   -2.1156363 
C    -2.4386207    3.2613899   -0.9661330 
C     0.5084469    1.9746572   -2.4231630 
C    -0.5440626    2.9469684   -2.3565959 
C     2.5896216    1.2419950   -1.3488903 
C     3.0885571    1.1549501    0.0237796 
C     1.7800863    2.3298148   -1.7508631 
C     1.9141748    1.7843103    2.0836112 
C     2.7632370    2.1537385    0.9363726 
C    -0.3708236    2.6071976    2.4468252 
C    -1.3952694    3.3261979    1.6698463 
C     0.9937527    2.8898355    2.2699981 
C    -1.5479217    4.2453126   -0.6103497 
C    -0.3902552    4.1513681   -1.5530731 
C    -1.0145453    4.3252579    0.7387224 
C     1.8771100    3.5153931   -0.9283652 
C     2.3618500    3.3897672    0.4250874 
C     1.3486559    3.9424570    1.3368971 
C     0.7590257    4.4125062   -0.8508907 
C     0.3939169    4.6043940    0.5908979 
