60 

C    -0.6083185    4.5075039    1.1623064 
C     0.4846621    4.4422002    0.2218916 
C    -0.0026825    4.2107305   -1.1011729 
C    -1.7487043    4.0122967    0.4297603 
C    -1.4406461    3.9249996   -0.9616049 
C    -2.2528277    2.8194445    1.0460666 
C    -0.3220117    3.5214517    2.1538891 
C    -1.3497211    2.5166081    2.1537850 
C     1.5017239    3.5572786    0.7043282 
C     0.9861073    2.9689001    1.9424330 
C     2.2404243    2.7318152   -0.1864213 
C     0.5694221    3.2208719   -1.9288337 
C     1.7600255    2.4970726   -1.5543020 
C    -1.7473092    2.7627468   -1.7121085 
C    -0.5453736    2.4442525   -2.4688653 
C    -2.7742692    1.7414254    0.2668389 
C    -2.5223772    1.6751436   -1.1702358 
C    -2.8848020    0.5195053    0.9661621 
C    -1.0901561    1.1641350    2.5429258 
C    -2.0825919    0.2502427    2.1362575 
C     1.3022235    1.6126027    2.3170813 
C     0.2604319    0.6731122    2.7259178 
C     2.9488515    1.6789093    0.4546680 
C     2.4725992    1.1090024    1.7282360 
C     3.4602059    0.6103398   -0.2795160 
C     2.0001622    1.1776706   -2.1600385 
C     2.9248184    0.2687003   -1.5574480 
C    -0.3545618    1.1709621   -2.9378545 
C     0.9526104    0.5448415   -2.8955516 
C    -2.3954831    0.3549343   -1.7776684 
C    -1.3553482    0.1644121   -2.7346667 
C    -3.1173256   -0.7385466    0.3194315 
C    -2.8421420   -0.8519376   -1.0741381 
C    -1.8952167   -1.1595976    2.2445608 
C    -2.7325883   -1.7892337    1.2424776 
C     0.5098038   -0.7634071    2.6893889 
C    -0.6228465   -1.6984649    2.6014952 
C     2.7645592   -0.2970342    1.7514146 
C     3.4881898   -0.5825588    0.5458631 
C     1.8210513   -1.2366483    2.2501257 
C     2.7311818   -1.1765426   -1.5705516 
C     3.1623044   -1.6831641   -0.2606092 
C     0.7547722   -0.8746784   -2.8954621 
C    -0.6746718   -1.1020837   -2.8922258 
C     1.6100230   -1.7832658   -2.1866605 
C    -2.3829175   -2.1457598   -1.5243606 
C    -1.2035447   -2.2533342   -2.3636315 
C    -2.4213576   -3.0720492    0.7915815 
C    -2.3080643   -3.2463449   -0.6391663 
C    -0.4078863   -3.0871953    2.2296176 
C    -1.3475913   -3.7771821    1.4023322 
C     1.9327942   -2.5676743    1.6881174 
C     2.4982866   -2.7420801    0.3335388 
C     0.9078330   -3.5030716    1.8108802 
C     1.0484847   -3.0593399   -1.6483750 
C    -0.3428679   -3.3438211   -1.8870443 
C    -1.1276290   -4.0570159   -0.9279157 
C    -0.5799830   -4.4344537    0.3144236 
C     1.6110844   -3.5874312   -0.4211161 
C     0.7791802   -4.2401957    0.5497487 
