60 

C     0.4219718    4.6338159    0.0775766 
C     0.6142848    4.1133955   -1.2756438 
C    -0.6326937    3.7259497   -1.8016761 
C    -0.9054656    4.2870225    0.4706981 
C    -1.6082096    3.8596047   -0.6917995 
C    -0.8408165    3.3718280    1.6242932 
C     1.3176176    3.9187972    0.9208037 
C     0.5611393    3.2599308    1.9716040 
C     1.6641737    3.1351866   -1.2434871 
C     2.1824796    3.0902880    0.1301929 
C     1.5495807    1.9025142   -1.9445886 
C    -0.8188627    2.4437748   -2.3670552 
C     0.2576632    1.5207051   -2.5241525 
C    -2.3938500    2.7119637   -0.6474685 
C    -2.0280427    1.8768279   -1.7961559 
C    -1.6851746    2.2292995    1.7129392 
C    -2.6116063    2.0181340    0.6030653 
C    -1.2169126    1.0094895    2.4135979 
C     1.0446876    2.0652778    2.4793463 
C     0.1438218    0.9712039    2.8062583 
C     2.7108770    1.8877277    0.6658143 
C     2.2523189    1.4856156    1.9620762 
C     2.4963605    0.8569349   -1.5910197 
C     3.1275781    0.8540664   -0.2691093 
C     2.3343203   -0.3758621   -2.2665368 
C    -0.0746267    0.0972742   -2.6768544 
C     1.0094056   -0.7848641   -2.7113097 
C    -2.3506130    0.5164019   -1.8423043 
C    -1.4029677   -0.4514440   -2.3672682 
C    -3.2036143    0.7721207    0.4771862 
C    -3.2900184    0.1074818   -0.8366550 
C    -1.8968949   -0.2755574    2.2821835 
C    -3.0757265   -0.2737763    1.4575712 
C    -1.1686177   -1.5497889    2.4402173 
C     0.8884802   -0.2582103    2.7859824 
C     2.2079773    0.0830812    2.2886863 
C     0.2920801   -1.5197524    2.5438121 
C     3.5265323   -0.3995663    0.2809201 
C     2.9350858   -0.8164052    1.5471296 
C     2.9805293   -1.5521442   -1.7961743 
C     3.5522441   -1.5669238   -0.5234956 
C     0.8461696   -2.2157228   -2.4458760 
C     2.0687724   -2.6909233   -1.9251331 
C    -1.5883868   -1.8687330   -2.0600927 
C    -0.4131236   -2.7465085   -2.0112996 
C    -3.5315322   -1.2343665   -0.6348415 
C    -3.5337146   -1.4699685    0.8320081 
C    -2.7430515   -2.2505440   -1.2560686 
C    -1.7497530   -2.7558195    1.8978889 
C    -2.9315356   -2.6750176    1.0607466 
C    -2.6106351   -3.2882496   -0.2581039 
C    -0.3297750   -3.7743550   -0.9969209 
C    -0.9140461   -3.7207285    1.2742235 
C    -1.4204476   -3.9512825   -0.0945239 
C     1.1344009   -2.5491498    1.9102634 
C     2.4514578   -2.1891935    1.4278105 
C     2.9457127   -2.6959228    0.2073247 
C     2.0899912   -3.4224322   -0.6904850 
C     0.4851664   -3.5961053    1.1930119 
C     0.8778339   -3.8863960   -0.1991322 
