60 

C     1.8776048    3.3489416    0.5566124 
C     0.5148206    3.6608942    0.7671310 
C    -0.1011217    3.7678396   -0.5622802 
C     2.1141255    3.1031367   -0.8541279 
C     0.8920744    3.3238573   -1.5474065 
C     2.8667911    1.9112279   -0.9936468 
C     2.5710823    2.3472914    1.3040206 
C     3.2742511    1.4919456    0.3449725 
C     1.9089292    1.7536441    2.3801865 
C    -0.2062242    3.0139677    1.8462663 
C     0.5082175    2.0653899    2.6472795 
C    -1.6000630    2.7632045    1.6614121 
C    -1.4377736    3.4480164   -0.7422029 
C    -2.2249825    3.1130603    0.4016692 
C    -1.8510059    2.5280016   -1.8175589 
C     0.5165670    2.3887752   -2.5111118 
C    -0.8877260    1.9839321   -2.6526914 
C     2.4886564    0.9229140   -1.9711010 
C     1.3398466    1.2284755   -2.7650746 
C     2.8001380   -0.4914031   -1.7092922 
C     3.4516969    0.1467804    0.6192448 
C     3.3124157   -0.8586541   -0.4223088 
C     2.1408094    0.3581698    2.6924972 
C     2.9555896   -0.4218418    1.8623303 
C    -0.1179717    0.8565068    3.1097555 
C     0.9042684   -0.1847825    3.1960474 
C    -2.2104615    1.5391988    2.1104666 
C    -1.4643246    0.5214327    2.7772244 
C    -3.1674031    2.1132190    0.0431020 
C    -2.8901073    1.6617006   -1.3004147 
C    -3.2366978    1.1791053    1.1190062 
C    -2.9241074    0.2676931   -1.6107697 
C    -0.9316387    0.5932610   -3.0248187 
C     0.4477790    0.1743499   -3.2102773 
C    -1.9076552   -0.3042275   -2.5041716 
C     2.0436221   -1.4935386   -2.4024237 
C     0.8092552   -1.1455160   -3.0924580 
C     1.8285561   -2.7754019   -1.8311070 
C     2.9236884   -2.1004885    0.2170655 
C     2.6129806   -1.8012093    1.6062863 
C     2.1622491   -3.0534209   -0.4714393 
C     0.5780731   -1.5108275    2.9613167 
C     1.4705009   -2.3594106    2.1935540 
C    -1.8217275   -0.8976667    2.5584599 
C    -0.7985440   -1.8939388    2.6677050 
C    -3.4666812   -0.1390372    0.8192440 
C    -3.4616126   -0.5880462   -0.5807535 
C    -2.8937728   -1.1991201    1.6514110 
C    -3.1212223   -1.9424516   -0.5453166 
C    -2.8461883   -2.3516162    0.8471656 
C    -1.5253462   -1.7322385   -2.3977757 
C    -0.2069353   -2.1361041   -2.7796960 
C     0.4653736   -3.1814944   -2.0768020 
C    -2.1599069   -2.5439299   -1.3909611 
C     0.9896979   -3.6616737    0.1531817 
C     0.6436850   -3.3001053    1.4563920 
C    -0.7478684   -3.0483608    1.8039814 
C    -1.7554467   -3.2379228    0.8342159 
C    -0.0606933   -3.7433707   -0.8783072 
C    -1.3881357   -3.4781335   -0.5629083 
