60 

C     0.9316390   -4.2968135    0.1938124 
C     0.2563114   -4.1222489   -1.0318314 
C    -1.1567969   -3.8852734   -0.7275305 
C    -0.0197354   -4.0131794    1.3024211 
C    -1.2858285   -3.7741109    0.7117696 
C     0.5724820   -3.0302225    2.1592200 
C     2.0926962   -3.5686225    0.4282198 
C     1.9290160   -2.8821071    1.7288188 
C     2.5778949   -2.6012945   -0.5039091 
C     0.6872870   -3.1346585   -1.9711649 
C     1.8631310   -2.3265691   -1.7218913 
C    -1.6554765   -2.8750024   -1.5664821 
C    -0.5326876   -2.4701238   -2.4232842 
C    -2.5621775   -1.8722510   -1.0712665 
C    -2.0747374   -2.7313566    1.2120471 
C    -2.8703708   -1.9231719    0.3265767 
C    -0.1735589   -1.8341980    2.5649624 
C    -1.5553481   -1.8264583    2.2254267 
C     0.4973249   -0.5419979    2.6901573 
C     2.4966249   -1.6257401    1.6369947 
C     3.0390377   -1.4741354    0.2790886 
C     1.8890674   -0.4818846    2.2756522 
C     3.2592886   -0.2032371   -0.2470558 
C     1.9048817   -0.9440333   -2.2291358 
C     2.7500009    0.0806666   -1.6002717 
C    -0.4799310   -1.1898449   -2.9004116 
C     0.7679168   -0.4662913   -2.9339089 
C    -2.5979421   -0.5525228   -1.7379742 
C    -1.5591357   -0.2349233   -2.6646816 
C    -3.1923152    0.5537342   -1.0879247 
C    -3.1841485   -0.7042127    1.0247645 
C    -2.2896654   -0.5965541    2.1537803 
C    -3.5637915    0.4380338    0.3274029 
C    -0.2730584    0.7202868    2.7150648 
C    -1.7176622    0.6579043    2.5116524 
C     0.4101955    1.9882411    2.4638529 
C     2.4827931    0.7334948    1.9227053 
C     3.3036292    0.8461959    0.7343928 
C     1.8046981    2.0015155    2.1277171 
C     3.2278912    2.2012921    0.3370278 
C     2.3680001    2.9568424    1.2400539 
C     2.5310622    1.4492429   -1.9230863 
C     2.8573770    2.4920218   -0.9838036 
C     0.4137463    0.9308947   -2.9835898 
C    -1.0171959    1.0811439   -2.7629558 
C     1.3000544    1.8833545   -2.5470825 
C    -2.7506354    1.9187562   -1.3034271 
C    -1.5432171    2.1937105   -2.0304651 
C    -3.3747973    1.6803763    0.9466579 
C    -2.4338071    1.8221637    2.0357302 
C    -3.0175614    2.6453038   -0.0889388 
C    -0.3453993    3.1114836    1.9380685 
C    -1.7302549    3.0292695    1.7967732 
C    -2.0751735    3.5120845    0.4343043 
C     1.5041899    3.7695995    0.4250832 
C     1.8094095    3.4988832   -0.9662435 
C     0.7962341    3.0860195   -1.8608439 
C    -0.5979283    3.2146572   -1.5295902 
C     0.1743826    3.8686324    0.7737550 
C    -0.8679254    3.8172344   -0.2452032 
