60 

C     0.1170181    4.4588354    1.0857316 
C     1.4343487    3.8729321    1.1981190 
C     1.9832530    3.7354443   -0.0963560 
C    -0.2444797    4.4025585   -0.3225164 
C     0.8925821    4.0131612   -1.0663881 
C    -1.4208700    3.6048848   -0.4803880 
C    -0.7762553    3.5899485    1.7536211 
C    -1.8286516    3.1831991    0.8632570 
C     1.3555094    2.6693491    2.0010882 
C    -0.0503087    2.5025874    2.3656695 
C     2.1305956    1.5257887    1.6937954 
C     2.6481806    2.5580284   -0.4837166 
C     2.8956763    1.4944127    0.4458647 
C     0.8698195    2.9327845   -1.9950365 
C     2.0963933    2.1773395   -1.7793930 
C    -1.5168297    2.6329562   -1.5403713 
C    -0.3309910    2.2013092   -2.2809362 
C    -2.5493618    1.6972950   -1.3902013 
C    -2.4989966    1.9699780    1.0691254 
C    -3.1773890    1.4833275   -0.0905351 
C    -0.6356395    1.2118017    2.5110263 
C    -1.9812355    0.9699291    2.0106334 
C     1.6825868    0.2623200    2.2772993 
C     0.2844837    0.1083813    2.6961417 
C     2.4227982   -0.8933337    1.9707293 
C     3.2620535    0.2083348   -0.1048635 
C     3.2635945   -0.9211152    0.7744931 
C     2.1971303    0.8867177   -2.2163965 
C     2.9910020   -0.0652946   -1.4836244 
C    -0.2352193    0.7811736   -2.6931181 
C     1.0557072    0.1959049   -2.7655670 
C    -2.5846495    0.4190110   -2.0820745 
C    -1.3644090   -0.1426089   -2.5748723 
C    -3.7761568    0.2259085   -0.0937517 
C    -3.5412376   -0.3910444   -1.4067485 
C    -2.4750421   -0.3935043    1.9208968 
C    -3.4753803   -0.7347083    0.9205804 
C    -0.2597658   -1.1987696    2.7538291 
C    -1.6162568   -1.4486739    2.3492241 
C     1.8934843   -2.2345867    2.1678886 
C     0.5407921   -2.3780615    2.4911468 
C     3.2504964   -2.2375521    0.2643814 
C     2.4596350   -3.0854775    1.1585109 
C     2.5650075   -1.3744642   -1.9009563 
C     1.2935795   -1.2173559   -2.5879375 
C     2.8102506   -2.4864897   -1.0843712 
C    -1.1381461   -1.5952953   -2.3981557 
C     0.2200494   -2.1263808   -2.3725958 
C    -3.3053442   -1.7385476   -1.1979298 
C    -3.3882909   -2.0002278    0.2516825 
C    -2.1379456   -2.3676803   -1.6985600 
C    -1.6235594   -2.7714578    1.7214427 
C    -0.2976374   -3.3315742    1.7823272 
C    -2.4139406   -2.9609611    0.5726341 
C    -1.7262235   -3.3329104   -0.6756960 
C     1.6289378   -3.9060227    0.3873136 
C     1.8071937   -3.5031646   -1.0242013 
C     0.5302640   -3.3185473   -1.5976259 
C     0.2350948   -4.0056960    0.6557078 
C    -0.4473047   -3.8140962   -0.6292764 
