60 

C     2.4065393   -3.8714063    0.3342856 
C     1.1946977   -4.3387264    0.9390695 
C     0.2738358   -4.5309367   -0.1167293 
C     2.1683813   -3.5857503   -1.0936539 
C     0.8687679   -4.0300763   -1.3918700 
C     2.4797717   -2.2222475   -1.3310549 
C     2.8045481   -2.6709405    0.9604975 
C     3.0355664   -1.6986132   -0.0604550 
C     0.8394731   -3.3770257    1.9825938 
C     1.8568154   -2.3214311    1.9974209 
C    -0.4874954   -2.9726775    2.1022164 
C    -1.0663045   -4.0732789   -0.0419228 
C    -1.5037623   -3.4286980    1.1385521 
C    -0.0850146   -3.1811240   -2.0046237 
C    -1.3579252   -3.4084009   -1.3160266 
C     1.5847150   -1.3594672   -2.0585860 
C     0.2500829   -1.8256923   -2.3993961 
C     1.8245957    0.0566298   -1.9574080 
C     2.8825709   -0.3672459    0.2348890 
C     2.6894300    0.5040008   -0.8992879 
C     1.5147983   -0.9577440    2.2109032 
C     2.2652233    0.0560970    1.4908353 
C    -0.8335202   -1.6127487    2.4664979 
C     0.1477479   -0.5843648    2.5642492 
C    -2.5131247   -2.4167314    1.0629861 
C    -2.1490283   -1.3175091    1.9481150 
C    -2.3458172   -2.4709195   -1.3941022 
C    -3.0900654   -2.0966607   -0.1863619 
C    -0.8165751   -0.8299860   -2.5243075 
C    -2.1441813   -1.2505549   -2.1775135 
C     0.8587551    1.0408546   -2.4295021 
C    -0.5232253    0.6137661   -2.5108507 
C     1.1606171    2.4226160   -2.2536325 
C     2.8447071    1.8481094   -0.6226772 
C     2.3404618    2.8164024   -1.5235811 
C     1.9728519    1.4415028    1.6746905 
C     2.6170665    2.3454707    0.7490277 
C    -0.2784854    0.8051066    2.4973654 
C     0.7331363    1.8545279    2.3261891 
C    -2.5489984    0.0127638    1.7123040 
C    -1.6642448    1.0876888    2.1617815 
C    -3.5643316   -0.7881745   -0.3864795 
C    -3.0544184   -0.2969173   -1.6817096 
C    -3.3905080    0.2460946    0.5535239 
C    -1.5293039    1.5870527   -2.0784153 
C    -2.7521657    1.0632570   -1.5737110 
C    -3.1515311    1.4492192   -0.2190896 
C     0.1445985    3.4040654   -1.8788935 
C    -1.1567398    2.9362660   -1.6112830 
C     2.1152920    4.0354619   -0.8066564 
C     2.2424857    3.7055814    0.6416824 
C     0.7842092    4.4178643   -1.0091324 
C     0.3213571    3.2184841    2.1415194 
C     1.0894139    4.1350852    1.3218641 
C     0.1957236    4.6953160    0.2896067 
C    -1.9699940    2.4065712    1.7088902 
C    -2.5899978    2.5382342    0.3731156 
C    -1.8127318    3.4603951   -0.4017504 
C    -1.0517830    3.4433910    1.8070819 
C    -1.0769633    4.2381735    0.5489097 
