60 

C    -0.5041971   -4.1501451   -0.6757270 
C    -1.7213108   -3.7452891   -0.1819915 
C    -1.6080442   -3.4881701    1.2684643 
C     0.4169750   -4.2057312    0.4855374 
C    -0.2243028   -3.5750591    1.6195416 
C     1.6356954   -3.7461983    0.0647928 
C     0.1633991   -3.3833913   -1.7291396 
C     1.5399347   -3.3465061   -1.3571388 
C    -0.4377190   -2.1990026   -2.2560399 
C    -2.4277316   -2.6567176   -0.7728932 
C    -1.8348129   -1.9496721   -1.8778769 
C    -2.3830982   -2.3502953    1.5399368 
C    -3.0132214   -1.8776623    0.3027655 
C    -1.8515383   -1.3762207    2.3939675 
C     0.4201660   -2.4281548    2.2491690 
C    -0.4513793   -1.4169246    2.7320161 
C     2.3685826   -2.7183411    0.7465869 
C     1.7832595   -1.9926312    1.8271673 
C     2.3453793   -2.2351590   -1.5568693 
C     3.0701672   -1.9987616   -0.2925692 
C     0.4180934   -1.0261264   -2.5732828 
C     1.8388236   -1.0926480   -2.2749964 
C    -0.1735980    0.3006422   -2.7471271 
C    -2.3772300   -0.6848697   -2.1232144 
C    -1.5988801    0.4021646   -2.7141404 
C    -3.3835900   -0.5311477    0.1261264 
C    -3.3252336   -0.0697354   -1.2305133 
C    -2.2441758   -0.0005106    2.2542940 
C    -3.0891494    0.4459224    1.2046013 
C    -0.0228411   -0.0381857    2.9171997 
C    -1.1483092    0.8228232    2.7275496 
C     2.2261044   -0.6027393    2.0313583 
C     1.3094965    0.3855337    2.6388313 
C     3.5907542   -0.7669595   -0.0392828 
C     3.2517727   -0.0748549    1.1932210 
C     2.5791507    0.1151255   -2.1093892 
C     3.5866362    0.2021645   -1.1015285 
C     0.5918562    1.5436463   -2.4883931 
C     1.9635881    1.4268744   -2.2174796 
C    -0.1037697    2.7567626   -1.9683143 
C    -2.2705887    1.6214920   -2.4586751 
C    -3.3168062    1.3231489   -1.5162890 
C    -1.5406099    2.7628198   -1.9459029 
C    -3.0075204    1.8436786    0.8723358 
C    -3.2409913    2.2646439   -0.4699919 
C    -2.2463315    3.2675674   -0.8156452 
C    -0.9914209    2.1781143    2.3267369 
C    -1.9621676    2.7026316    1.4223402 
C    -1.5328406    3.6123457    0.3640197 
C     1.4909298    1.7820362    2.4292205 
C     0.3474427    2.6847847    2.2991042 
C     3.3557933    1.3475221    0.8997856 
C     3.5479188    1.5024541   -0.5248119 
C     2.6427011    2.3178115   -1.2804490 
C     2.5491070    2.2771850    1.5627673 
C     0.5394098    3.5557589   -0.9810055 
C    -0.1853335    3.9467057    0.2376299 
C     0.6987650    3.6538574    1.3176552 
C     1.9218161    3.2993924   -0.6014676 
C     2.0250249    3.3822006    0.8274227 
