60 

C    -1.8465384   -4.0972833   -0.8268352 
C    -0.6397330   -3.9723570   -1.6018166 
C     0.4517462   -4.2616403   -0.7619890 
C    -1.4472952   -4.1404210    0.5978818 
C    -0.0639801   -4.3045174    0.6465377 
C    -2.0018678   -3.0039352    1.2667996 
C    -2.5779531   -2.9169857   -1.0024152 
C    -2.8370704   -2.3130420    0.2760097 
C    -0.6540744   -2.6873422   -2.3066970 
C    -1.9213765   -2.0654149   -2.0009406 
C     0.5033993   -1.8687053   -2.3778312 
C     1.6003182   -3.4668574   -0.7802621 
C     1.7268702   -2.3529186   -1.7069664 
C     0.7796198   -3.4649355    1.4295201 
C     1.9582931   -3.2111987    0.6243735 
C    -1.1951322   -2.1863839    2.1384108 
C     0.2545974   -2.3860573    2.2247951 
C    -1.6915812   -0.8763602    2.3687996 
C    -3.0782851   -0.9399551    0.3393087 
C    -2.7616933   -0.3076401    1.5763929 
C    -2.0684680   -0.6806926   -1.9443246 
C    -2.9350313   -0.1345248   -0.8846448 
C     0.3188734   -0.4303433   -2.5828422 
C    -1.0004924    0.1617172   -2.4628477 
C     1.4696469    0.4566263   -2.4185560 
C     2.7460959   -1.4245403   -1.4027383 
C     2.6474906   -0.0357165   -1.7803789 
C     2.8069260   -2.1864646    0.9440213 
C     3.4312283   -1.4764662   -0.1344914 
C     1.1235023   -1.2261660    2.5085401 
C     2.4423666   -1.2189719    1.9667285 
C    -0.8724179    0.2191858    2.8203260 
C     0.5390055    0.0857924    2.8399539 
C    -2.6946618    1.1033103    1.6743118 
C    -1.5176015    1.4626982    2.4538970 
C    -3.0115892    1.2380208   -0.7604734 
C    -3.0451668    1.8819201    0.5609241 
C    -1.1810207    1.6082045   -2.4115350 
C    -2.3019916    2.1355758   -1.6671900 
C     1.2747462    1.8564442   -2.3642240 
C    -0.0249082    2.4543033   -2.5288721 
C     2.0511733    2.6994844   -1.4402956 
C     3.3072818    0.7609436   -0.7572485 
C     3.6823904   -0.1486027    0.2865244 
C     3.1000805    0.0250750    1.5939404 
C     2.8561696    2.0620529   -0.4409917 
C     1.2715085    1.2959851    2.5916531 
C     2.5209023    1.2492297    1.8880705 
C     2.5677301    2.3638873    0.9436327 
C    -0.7904745    2.6524506    2.1607209 
C     0.6306935    2.5401909    2.2355784 
C     1.4868771    3.2337191    1.2650868 
C    -2.4917034    3.1638693    0.4163947 
C    -2.1964470    3.3946749   -1.0016052 
C    -1.3569985    3.5911627    1.1932656 
C     0.0196826    3.7396360   -1.8841818 
C     1.2624474    3.8066364   -1.1127388 
C     0.9036598    4.0588219    0.2697286 
C    -1.0313751    4.1684223   -1.0681281 
C    -0.4983939    4.3163989    0.3119330 
