60 

C    -0.2234879   -4.2870283    0.6834495 
C     1.1007814   -4.0706915    0.9144039 
C     1.7675555   -3.8900012   -0.4130969 
C    -0.4364989   -4.2243603   -0.8034667 
C     0.7456070   -3.6678100   -1.4039804 
C    -1.6488760   -3.6454250   -1.0067219 
C    -1.2318924   -3.4653411    1.3073176 
C    -2.2512365   -3.3087413    0.3182823 
C    -0.8526717   -2.3052253    2.0856677 
C     1.5377108   -2.9900760    1.7811039 
C     0.5850978   -2.0418572    2.3021860 
C     2.7532208   -2.9643408   -0.2336109 
C     2.7116894   -2.4712786    1.1781665 
C     2.8625140   -1.8251363   -1.0704562 
C     0.6662418   -2.3812739   -2.0897094 
C     1.7982594   -1.4608441   -1.9718258 
C    -1.8053850   -2.4985239   -1.8427069 
C    -0.6564860   -1.7816050   -2.3323799 
C    -2.9953341   -2.1523550    0.1736732 
C    -2.8875890   -1.7577503   -1.2473700 
C    -1.7927945   -1.1858850    2.1032240 
C    -2.9302125   -1.1291299    1.1794467 
C    -1.3239055    0.0590603    2.6030196 
C     1.0493493   -0.6528667    2.4807813 
C     0.0714563    0.3289453    2.7570088 
C     3.0615698   -1.1225705    1.1794513 
C     3.4121224   -0.8023811   -0.2016819 
C     2.3063411   -0.1589450    1.9164715 
C     3.4134070    0.4801157   -0.5971059 
C     1.6505777   -0.0278142   -2.2813992 
C     2.6960618    0.8471606   -1.8230497 
C    -0.8052945   -0.3158297   -2.5399392 
C     0.3566755    0.5802959   -2.5392083 
C    -3.1070808   -0.4603679   -1.5977527 
C    -2.0816540    0.2756704   -2.3227519 
C    -3.4650039    0.1340503    0.7889850 
C    -3.6680538    0.4030622   -0.6121281 
C    -1.9715167    1.3249090    2.3023282 
C    -3.0188946    1.3719018    1.3865551 
C     0.3068415    1.7578880    2.5668477 
C    -0.9727435    2.3774912    2.3450038 
C     2.4948156    1.2523760    1.5689445 
C     3.2489188    1.5362584    0.3744642 
C     1.5099129    2.2589519    1.9780303 
C     2.5254457    2.2230628   -1.7515873 
C     2.9854687    2.6939274   -0.4082113 
C     0.1679807    2.0446083   -2.3586254 
C     1.3009733    2.8683946   -2.0456739 
C    -2.2319707    1.6608819   -1.9275927 
C    -3.2403270    1.7261571   -0.8997404 
C    -2.9709009    2.3981576    0.3305638 
C    -1.1386889    2.5513186   -1.9027846 
C    -1.0618162    3.4761707    1.4654446 
C    -1.9857055    3.3578281    0.3248723 
C    -1.2002396    3.5879682   -0.8901754 
C     1.4084177    3.5211075    1.2548489 
C     2.1545521    3.6952038    0.0123019 
C     1.1946733    3.9577618   -1.0787706 
C     0.1232351    4.0678098    1.0035125 
C    -0.0112137    4.2269605   -0.4728531 
