60 

C     0.9721475    4.0019016    0.6946525 
C     0.9721475    4.0019016   -0.6946525 
C    -0.4222562    3.8941934   -1.1521580 
C    -0.4222562    3.8941934    1.1521580 
C    -1.2778790    3.7941025    0.0000000 
C    -0.4657964    2.9235858    2.1670465 
C     1.7608489    3.0503739    1.4265351 
C     0.9007436    2.4183088    2.4019943 
C     2.6639702    2.2343314    0.7291372 
C     1.7608489    3.0503739   -1.4265351 
C     2.6639702    2.2343314   -0.7291372 
C    -0.4657964    2.9235858   -2.1670465 
C     0.9007436    2.4183088   -2.4019943 
C    -1.5778629    1.9998727   -2.2359044 
C    -2.2910003    2.8014236    0.0000000 
C    -2.4956841    1.9638630   -1.1518905 
C    -1.5778629    1.9998727    2.2359044 
C    -2.4956841    1.9638630    1.1518905 
C    -1.3633644    0.7954240    2.9535361 
C     1.1098146    1.0926289    2.8391711 
C    -0.0487940    0.4093992    3.3428620 
C     2.9022294    0.8766482    1.1720800 
C     2.1733563    0.2729763    2.2303671 
C     2.9022294    0.8766482   -1.1720800 
C     3.2536012    0.1018741    0.0000000 
C     1.1098146    1.0926289   -2.8391711 
C     2.1733563    0.2729763   -2.2303671 
C    -1.3633644    0.7954240   -2.9535361 
C    -0.0487940    0.4093992   -3.3428620 
C    -2.1330331   -0.4360224   -2.6748114 
C    -3.0502452    0.6740838   -0.7068066 
C    -3.0502452    0.6740838    0.7068066 
C    -2.8762075   -0.5306631   -1.4503143 
C    -2.1330331   -0.4360224    2.6748114 
C    -2.8762075   -0.5306631    1.4503143 
C    -0.0564622   -1.0176764    3.4577836 
C    -1.3746595   -1.5292732    3.1230402 
C     2.0657220   -1.2021136    2.2346760 
C     0.9248430   -1.8252049    2.8757387 
C     3.1494703   -1.2662164    0.0000000 
C     2.6532329   -1.9450265    1.1780294 
C     2.0657220   -1.2021136   -2.2346760 
C     2.6532329   -1.9450265   -1.1780294 
C    -0.0564622   -1.0176764   -3.4577836 
C    -1.3746595   -1.5292732   -3.1230402 
C     0.9248430   -1.8252049   -2.8757387 
C    -1.2010189   -2.7071646   -2.3367358 
C     0.2268273   -2.9950768   -2.2852821 
C    -2.8108341   -1.7696044   -0.7207153 
C    -2.8108341   -1.7696044    0.7207153 
C    -1.9721254   -2.8660370   -1.1750384 
C    -1.2010189   -2.7071646    2.3367358 
C     0.2268273   -2.9950768    2.2852821 
C    -1.9721254   -2.8660370    1.1750384 
C    -1.4012221   -3.5012613    0.0000000 
C     2.0445971   -3.1663267    0.7072939 
C     2.0445971   -3.1663267   -0.7072939 
C     0.7644363   -3.6267997   -1.1749225 
C     0.7644363   -3.6267997    1.1749225 
C    -0.0618209   -3.9111257    0.0000000 
