60 

C     1.6057793    4.0291947   -0.5132711 
C     0.6487330    4.0843225    0.5493830 
C     1.0798167    3.1803031    1.5909009 
C     2.6408639    3.1290423   -0.1671286 
C     2.3391790    2.5888429    1.1387084 
C     2.7818161    2.1868002   -1.2483593 
C     0.9318233    3.5088484   -1.6794845 
C     1.6481810    2.3518458   -2.1514826 
C    -0.6557119    3.9004671   -0.0239107 
C    -0.4681710    3.4323156   -1.4162712 
C    -1.6254452    3.3178973    0.7529628 
C     0.1270797    2.3909819    2.2974582 
C    -1.2608379    2.6845451    2.0207086 
C     0.4844372    1.0361766    2.7458449 
C     2.6489573    1.2424754    1.4595033 
C     1.8009608    0.5079870    2.4025315 
C     3.1958301    0.9087178   -0.9419416 
C     3.3136699    0.4756103    0.4368886 
C     2.7368324   -0.2177204   -1.7148218 
C     0.9417076    1.2197812   -2.6320159 
C     1.5814102   -0.1088217   -2.5321282 
C    -1.2324278    2.3471443   -1.9207805 
C    -0.5185435    1.3038580   -2.6808285 
C    -2.6615159    2.5095463    0.1243054 
C    -2.4741214    2.0022789   -1.2063050 
C    -2.2487729    1.7053068    2.2437188 
C    -3.1683445    1.6428816    1.1253858 
C    -0.5894176    0.0714771    3.0011632 
C    -1.9338574    0.3881913    2.6462963 
C    -0.3211109   -1.3229421    3.0203080 
C     2.0329965   -0.9023013    2.5205278 
C     1.0061323   -1.7740940    2.9554525 
C     3.2951645   -0.9545729    0.4320604 
C     2.9998299   -1.4079686   -0.9277284 
C     2.7841365   -1.6529207    1.5165148 
C     2.3153048   -2.5822254   -1.1492261 
C     0.8102950   -1.3367077   -2.7428614 
C     1.2443235   -2.5796678   -2.1346920 
C    -1.2178163    0.1086810   -2.9705153 
C    -0.5701255   -1.2021039   -3.0155975 
C    -3.0942865    0.7444583   -1.4870986 
C    -2.5391604   -0.0813015   -2.4824915 
C    -3.4632154    0.2672647    0.8851896 
C    -2.7381118   -0.5405271    1.8620738 
C    -3.5490380   -0.1635441   -0.4271466 
C    -1.1503072   -2.2900674    2.2936467 
C    -2.2753792   -1.8478711    1.5468992 
C     1.0546563   -3.0322081    2.2201884 
C     2.1348222   -2.9539516    1.3038808 
C     1.9289221   -3.4314915   -0.0134606 
C    -0.2750915   -3.3416139    1.7991911 
C     0.2885986   -3.5222095   -1.6717118 
C     0.6680224   -3.9954571   -0.3463178 
C    -0.4774859   -3.8497055    0.4985595 
C    -1.5260207   -2.1808904   -2.5012662 
C    -2.6844134   -1.4790803   -2.1046182 
C    -3.1531913   -1.5262598   -0.7738291 
C    -2.5117908   -2.3955510    0.1919085 
C    -1.0959787   -3.2397736   -1.6897727 
C    -1.5905914   -3.3536934   -0.3150977 
