60 

C     1.2224089    4.0762218    0.5968770 
C    -0.1262809    4.2442415    0.7467077 
C    -0.7482782    4.1862671   -0.6140077 
C     1.4923912    3.8973417   -0.8706102 
C     0.2422361    3.7063495   -1.5448289 
C     2.4981545    2.9745728   -0.9788278 
C     1.9285531    3.0465719    1.3113269 
C     2.8723929    2.5286825    0.3805529 
C     1.1914203    2.0914502    2.1319051 
C    -0.8942845    3.3839014    1.6142945 
C    -0.2510396    2.2584542    2.2832093 
C    -1.9696205    3.5777878   -0.4674165 
C    -2.1281195    3.1654415    0.9442014 
C    -2.3281391    2.4612994   -1.2724398 
C    -0.0014137    2.4604253   -2.2560300 
C    -1.3632854    1.9143738   -2.1913993 
C     2.3498022    1.7927078   -1.7681840 
C     1.1098946    1.4965093   -2.4111132 
C     3.2197597    1.1825934    0.3145288 
C     3.0402330    0.7315142   -1.0591782 
C     1.7773510    0.7505678    2.2734886 
C     2.8612439    0.3090159    1.3832864 
C     0.9699188   -0.2763099    2.8113107 
C    -1.0855393    1.0811703    2.5485226 
C    -0.4399603   -0.1162859    2.9379912 
C    -2.7818305    1.9288553    0.9527933 
C    -3.0694197    1.5487592   -0.4237813 
C    -2.3959060    0.9233140    1.8967576 
C    -3.2731013    0.2020029   -0.7577391 
C    -1.5635868    0.5448659   -2.5206769 
C    -2.6195976   -0.2717540   -1.9419280 
C     0.8593356    0.0728049   -2.6900912 
C    -0.4820791   -0.3220875   -2.9079005 
C     2.8633825   -0.6203049   -1.3442866 
C     1.8132989   -0.9823970   -2.2959536 
C     3.0603169   -1.0528979    1.1058004 
C     3.2192280   -1.5148186   -0.2699901 
C     1.2402908   -1.7046698    2.5823009 
C     2.3387589   -2.0975202    1.8125649 
C    -1.0433214   -1.4361978    2.7621090 
C    -0.0053063   -2.4110355    2.4831316 
C    -2.9227918   -0.3624379    1.6521063 
C    -3.4462738   -0.7130475    0.3333151 
C    -2.2982363   -1.5600079    2.1842162 
C    -3.1983174   -2.0909177    0.1290573 
C    -2.5232522   -2.6433704    1.2687451 
C    -2.2407378   -1.6469009   -2.0646557 
C    -0.9281245   -1.6812472   -2.7074184 
C    -2.5490504   -2.5838801   -1.0592008 
C     1.3795972   -2.3426377   -2.2704276 
C    -0.0300662   -2.6762735   -2.4014007 
C     2.8061534   -2.8637946   -0.3207940 
C     2.2184673   -3.2327848    0.9617592 
C     1.9285172   -3.2816191   -1.3318118 
C    -0.1951594   -3.4594643    1.4985349 
C    -1.4735809   -3.4908911    0.8313077 
C    -1.5524915   -3.5472094   -0.6410657 
C    -0.3662293   -3.6834850   -1.3723009 
C     0.9573360   -3.8609579    0.7308499 
C     0.8339785   -4.0108571   -0.7080942 
