60 

C    -0.0113145    4.7523255    1.1837081 
C    -0.0521816    4.9720266   -0.2172869 
C    -1.2349348    4.3474738   -0.7684782 
C    -1.1343543    3.9409665    1.5301289 
C    -1.9310808    3.7046258    0.3185065 
C    -0.6345267    2.7829694    2.2219324 
C     1.2037778    4.0127220    1.5015446 
C     0.8377093    2.8382178    2.2250299 
C     1.1111059    4.3402983   -0.8146876 
C     1.9414298    3.8324956    0.2694138 
C    -0.8002007    3.5212968   -1.8602514 
C     0.6773265    3.4507906   -1.8427192 
C    -1.4930471    2.3567804   -2.1221641 
C    -2.5182197    2.4297531    0.1283638 
C    -2.5206480    1.9044388   -1.2081925 
C    -1.2782256    1.5380338    2.1350083 
C    -2.3997269    1.4171538    1.1941868 
C    -0.5328796    0.3319534    2.4948447 
C     1.5651764    1.6178718    2.0889742 
C     0.9103837    0.3563162    2.4103762 
C     2.5738818    2.6149565    0.0621261 
C     2.5940214    1.5973802    1.0931279 
C     1.3220190    2.1751344   -2.0563768 
C     2.4150168    1.8882346   -1.1903206 
C    -0.8470225    1.1565760   -2.6460064 
C     0.5640070    1.0147655   -2.5760889 
C    -2.7124542    0.5123592   -1.4576932 
C    -1.6990997    0.0365107   -2.3863243 
C    -2.8546901    0.1274512    0.9269947 
C    -3.0996544   -0.3285460   -0.4311531 
C    -1.2084319   -0.9449106    2.4464741 
C    -2.4086827   -1.0296068    1.6666255 
C    -0.4513133   -2.1481307    2.6046319 
C     1.6169036   -0.8970859    2.1439648 
C     0.9854856   -2.1245630    2.3942899 
C     2.9242105    0.3545022    0.4789883 
C     2.7784508    0.5321235   -0.9514047 
C     2.6381617   -0.8832299    1.0860348 
C     1.0742424   -0.3480423   -2.4817052 
C     2.3026401   -0.5457654   -1.7192929 
C    -1.2381832   -1.2948981   -2.3476278 
C     0.1861720   -1.4981754   -2.5822234 
C    -2.8218349   -1.7298293   -0.4996827 
C    -2.6459434   -2.2012780    0.8710560 
C    -1.9813879   -2.2604361   -1.5215913 
C    -0.9341961   -3.3941314    2.1225307 
C    -1.9735694   -3.4020078    1.1325821 
C     1.3679520   -3.3805382    1.7226381 
C     0.1858799   -4.1872503    1.6173778 
C     2.7845216   -2.0162690    0.2573346 
C     2.6233753   -1.8253556   -1.1894758 
C     2.2460805   -3.3114423    0.6080933 
C     0.7095026   -2.8177728   -2.3234484 
C     1.9904485   -2.9663728   -1.6861378 
C     1.8813524   -3.9740801   -0.6230844 
C    -1.4014096   -3.5586799   -1.2697433 
C    -1.5128663   -4.1817361    0.0257169 
C    -0.2029313   -4.7479279    0.3714820 
C    -0.1161923   -3.8591775   -1.8024655 
C     0.6399684   -4.6012643   -0.7584612 
