60 

C     1.5320240   -4.3417175   -1.0644131 
C     1.1599440   -4.6634323    0.2657211 
C    -0.2393011   -4.5053634    0.4000869 
C     0.3204531   -3.8965714   -1.7603146 
C    -0.7980103   -4.0270797   -0.8728022 
C     0.5514952   -2.6103965   -2.3346660 
C     2.3846228   -3.2017504   -1.0089682 
C     1.8976609   -2.1889643   -1.9107317 
C     1.7687721   -3.6605161    1.1742406 
C     2.6011262   -2.8073408    0.3895115 
C    -0.4864500   -3.6991788    1.5809679 
C     0.7794147   -3.0692457    2.0057384 
C    -1.6219869   -2.9517543    1.6172076 
C    -1.8247027   -3.0438884   -0.8687007 
C    -2.4531098   -2.8022251    0.4152931 
C    -0.4504051   -1.6229291   -2.4042302 
C    -1.7434673   -1.8878087   -1.7663206 
C    -0.0003980   -0.2370263   -2.6198979 
C     2.1980443   -0.8512923   -1.6732308 
C     1.3555519    0.1946956   -2.2488991 
C     2.6797511   -1.4493296    0.6986468 
C     2.8817615   -0.5424296   -0.4267543 
C     0.8082186   -1.6640306    2.3097860 
C     1.9172296   -0.8884460    1.8055684 
C    -1.6563720   -1.6633287    2.3345923 
C    -0.4450704   -0.9370386    2.5746352 
C    -3.2120257   -1.6556739    0.6245742 
C    -2.7879367   -0.9852967    1.8762985 
C    -2.6362354   -0.7596294   -1.5732751 
C    -3.3971320   -0.6581759   -0.3461447 
C    -0.9721693    0.7576700   -2.7110785 
C    -2.3285270    0.4795291   -2.2048562 
C    -0.6628818    2.1547011   -2.5121795 
C     1.6660479    1.5770140   -1.9965516 
C     0.6356903    2.6142853   -2.1390409 
C     3.0827311    0.7713776   -0.1279693 
C     2.7307553    1.8447401   -1.0438693 
C     1.9465636    0.5363630    2.0147931 
C     2.8995396    1.2761345    1.2278246 
C    -0.5014459    0.5172402    2.5194482 
C     0.7617968    1.2549451    2.4650401 
C    -2.8275113    0.3988130    1.6825462 
C    -3.4322154    0.6205108    0.3697986 
C    -1.7210000    1.2010938    2.0888726 
C    -2.8119304    1.6999164   -1.6888241 
C    -1.8237788    2.7300329   -1.9072407 
C    -3.1854072    1.7924815   -0.3068723 
C    -1.6429679    2.5400059    1.4998702 
C    -1.6980025    3.5480836   -0.7575585 
C    -2.3931188    2.8428551    0.3209795 
C     0.6945126    3.8073563   -1.3204350 
C    -0.4747676    4.1766307   -0.5395593 
C     2.8075193    3.0413871   -0.3140874 
C     2.8786616    2.6718331    1.1377772 
C     1.8303878    4.0551558   -0.4514973 
C     0.7226299    2.6715709    2.3006279 
C    -0.4611471    3.3074637    1.7428930 
C    -0.0338890    4.3460696    0.8326757 
C     1.8560133    3.3999356    1.7636586 
C     1.3744445    4.4419688    0.8612953 
