60 

C     0.6633642    4.2760809    0.6766930 
C     0.5193011    3.6209751    1.8880299 
C    -0.8748900    3.1735149    2.0305158 
C    -0.6647996    4.2587522    0.0150469 
C    -1.5907936    3.4965100    0.8351322 
C    -0.4547149    3.8826087   -1.3007939 
C     1.6578690    3.8078479   -0.2784137 
C     0.9738360    3.6162366   -1.5224475 
C     2.5621568    2.8076009    0.1190289 
C     1.3797965    2.5328052    2.2814259 
C     2.4626641    2.2013720    1.4564778 
C    -0.8546849    1.8602554    2.5300303 
C     0.5397741    1.4494088    2.7389254 
C    -1.8483301    0.9262834    2.1338365 
C    -2.4320009    2.5053691    0.2589839 
C    -2.7720586    1.3363135    1.0766275 
C    -1.2188418    2.8292665   -1.8925292 
C    -2.3248580    2.2731540   -1.1935498 
C     1.0575094    2.3975984   -2.2295267 
C    -0.2874642    1.9338145   -2.5465980 
C     2.8774132    1.7197153   -0.7805988 
C     2.0566704    1.4235176   -1.9164087 
C     2.8869519    0.8333639    1.3814809 
C     3.3446635    0.6131238    0.0261355 
C     0.9098638    0.0943855    2.6297569 
C     2.2032313   -0.2373345    2.0283893 
C    -1.5585172   -0.4759690    2.3895562 
C    -0.1702386   -0.8938318    2.6376337 
C    -2.4796086   -1.4331635    1.8566127 
C    -3.5640093    0.3157301    0.4715896 
C    -3.4926582   -1.0161969    0.9583583 
C    -2.7834312    1.0367811   -1.7197249 
C    -3.6424615    0.2246004   -0.9637562 
C    -0.5705945    0.5489628   -2.7230403 
C    -1.9080046    0.1604399   -2.4904089 
C     1.8263152    0.0232427   -2.2900394 
C     0.4899457   -0.4507499   -2.6448919 
C     3.4104952   -0.6434996   -0.4935938 
C     2.7572011   -0.9250798   -1.7751929 
C     2.4841542   -1.6027369    1.5855479 
C     3.2362147   -1.8001871    0.3659311 
C     0.1995178   -2.2389275    2.4023995 
C     1.5319139   -2.6184113    1.9363542 
C    -2.0083948   -2.7308788    1.4224559 
C    -0.7549591   -3.1725677    1.8065640 
C    -3.4512644   -1.9441156   -0.1872531 
C    -3.4242969   -1.1661666   -1.3433701 
C    -2.2673244   -1.2097292   -2.1931608 
C    -2.4650568   -2.9263774    0.0400918 
C     0.1175873   -1.8486308   -2.4142511 
C    -1.2602179   -2.1991105   -2.0213034 
C    -1.4671476   -3.2038149   -0.9558360 
C     2.4695209   -2.2899967   -1.7764970 
C     2.9210357   -2.8860754   -0.5060885 
C     1.1567351   -2.7828612   -2.0683832 
C     1.3785597   -3.7886235    1.1135881 
C    -0.0493215   -4.0209454    0.9279102 
C    -0.3376085   -3.9517325   -0.4866701 
C     1.9977689   -3.8627523   -0.1490652 
C     0.9065214   -3.8591649   -1.1577166 
