60 

C     0.0025511   -4.4786300    0.9924925 
C    -1.1839147   -3.8027386    1.5228468 
C    -2.0834298   -3.5739964    0.4754967 
C    -0.0785677   -4.3911856   -0.4519005 
C    -1.3629489   -3.9173879   -0.7858858 
C     1.0573870   -3.6333168   -0.9524454 
C     1.0928049   -3.6803342    1.3706885 
C     1.8392779   -3.2519322    0.2105648 
C    -0.7882820   -2.6711946    2.3300541 
C     0.6538899   -2.6130671    2.2685821 
C    -1.5050756   -1.4405467    2.2856561 
C    -2.6724379   -2.3017767    0.2965080 
C    -2.5349505   -1.2587665    1.2672984 
C    -1.5532663   -2.8519315   -1.6928847 
C    -2.5032467   -1.9240046   -1.0966973 
C     0.9081186   -2.6909956   -2.0123163 
C    -0.4464522   -2.3122757   -2.4450458 
C     1.9152373   -1.6765272   -2.0909738 
C     2.5739580   -2.0476062    0.2625106 
C     2.7940283   -1.3957642   -0.9820634 
C     1.3728306   -1.4010130    2.3620372 
C     2.5114515   -1.2032533    1.4643612 
C    -0.8081949   -0.2695321    2.7948367 
C     0.6454002   -0.2540792    2.8859291 
C    -1.4816419    0.9675394    2.6814189 
C    -2.9209653    0.0784705    0.8710378 
C    -2.6084150    1.1185193    1.7924663 
C    -2.6077461   -0.5823582   -1.5109378 
C    -3.0425189    0.4245701   -0.5492666 
C    -0.6480414   -1.0243341   -2.9869180 
C    -1.7767689   -0.2037035   -2.6060110 
C     1.7209388   -0.4328213   -2.7997385 
C     0.4446968   -0.1085549   -3.2714104 
C     3.2077088   -0.0114143   -1.0629879 
C     2.5491120    0.5982143   -2.1996771 
C     3.0541962    0.0939766    1.3781077 
C     3.4049856    0.7149330    0.1003099 
C     1.3145350    1.0087130    2.9005409 
C     2.5432260    1.1310561    2.2006094 
C    -0.7749795    2.2621912    2.7253587 
C     0.6151761    2.2556228    2.7286005 
C    -2.6301891    2.4916832    1.3864903 
C    -1.4694449    3.1966681    1.9249086 
C    -2.9003757    1.7907942   -0.9352433 
C    -2.7774746    2.8221774    0.0462864 
C    -1.4254092    1.1814985   -2.8149814 
C    -0.0309626    1.2521347   -3.1892989 
C    -1.9965579    2.1557764   -2.0109724 
C     2.0891618    1.9129629   -2.1109974 
C     0.7779298    2.2617229   -2.6345205 
C     3.0124045    2.1271007    0.1629427 
C     2.5570653    2.3926207    1.4867266 
C     1.3440151    3.0723470    1.7425247 
C     2.3135130    2.7012476   -0.9118496 
C    -0.8107418    3.8599375    0.8320894 
C    -1.6781513    3.7282351   -0.3117590 
C    -1.1795273    3.3055833   -1.5539088 
C     0.2162910    3.2753829   -1.7797629 
C     0.6211838    3.7177721    0.6676976 
C     1.1276031    3.5055910   -0.6675249 
