60 

C    -0.5046336    4.4448326    0.3349047 
C    -1.7513777    3.9099940    0.0175814 
C    -1.7080720    3.4207058   -1.3690165 
C     0.3401821    4.2838718   -0.8689598 
C    -0.3712999    3.5116012   -1.8613240 
C     1.5854744    3.8481394   -0.4588936 
C     0.2393728    3.9365915    1.4694090 
C     1.5781198    3.6857408    1.0235151 
C    -0.3491687    2.9427860    2.2792451 
C    -2.3544090    2.8693632    0.8005311 
C    -1.6915028    2.4514401    1.9723139 
C    -2.4610658    2.2320698   -1.4459694 
C    -2.9004778    1.8480047   -0.1096910 
C    -2.0026883    1.2277706   -2.2936351 
C     0.2415217    2.3254244   -2.4435836 
C    -0.6429153    1.2745790   -2.8106288 
C     2.2317087    2.7213051   -1.0390617 
C     1.5973753    1.9142675   -2.0526119 
C     2.2743413    2.5128191    1.3289455 
C     2.8818947    2.0560844    0.0739036 
C     0.4147993    1.7841036    2.6972835 
C     1.7229923    1.4978387    2.2147860 
C    -1.7739207    1.0755985    2.3433822 
C    -0.4898927    0.6787492    2.8741300 
C    -2.9987376    0.4913062    0.2453922 
C    -2.5526312    0.1336716    1.5952612 
C    -2.3559258   -0.1298440   -2.0389042 
C    -2.8921079   -0.5547319   -0.7923171 
C    -0.2138809   -0.0889777   -2.9725522 
C    -1.3567928   -0.9419486   -2.6950443 
C     2.0140102    0.5125275   -2.1713135 
C     1.1036297   -0.5229491   -2.6731275 
C     3.2870471    0.7745723   -0.0452618 
C     3.0438648    0.0520339   -1.2859825 
C     2.1516900    0.1036976    2.0713846 
C     3.1345245   -0.1684606    1.0697084 
C    -0.0771923   -0.6674474    2.8593457 
C     1.2766262   -1.0194671    2.4632108 
C    -2.3258251   -1.2083441    1.8846801 
C    -1.1492041   -1.6081281    2.6656550 
C    -2.7464934   -1.9666728   -0.4328530 
C    -2.6405946   -2.2907035    0.9687241 
C    -1.2210388   -2.2592617   -2.3743309 
C    -2.0667285   -2.8585831   -1.3520985 
C     1.2694843   -1.9559021   -2.3323436 
C     0.1165395   -2.8311670   -2.3198011 
C     3.1697085   -1.3060992   -0.9573756 
C     3.2411697   -1.4399037    0.4955806 
C     2.3313424   -2.3321489   -1.4479506 
C     1.5007324   -2.3743159    1.9431369 
C     2.4528391   -2.5438184    0.8798205 
C     2.0918413   -3.2598448   -0.3421888 
C    -0.8914004   -2.9357908    2.3647642 
C    -1.8971473   -3.4264133    1.4060501 
C     0.4217295   -3.3477946    1.9533802 
C    -1.3322604   -3.9893821   -0.8802463 
C     0.0251644   -3.9253067   -1.4330354 
C     0.9700924   -4.0837543   -0.3509454 
C    -1.2164306   -4.2420597    0.4991101 
C     0.2259979   -4.2422689    0.8559122 
