60 

C    -1.5354474   -4.2178192   -0.2238549 
C    -0.3093664   -4.3015376    0.5095985 
C    -0.4285551   -3.4724461    1.6829499 
C    -2.4496979   -3.3478313    0.4538127 
C    -1.7984010   -2.9371783    1.6661812 
C    -2.8300090   -2.3215488   -0.4664763 
C    -1.2606085   -3.7057515   -1.5257721 
C    -2.0361123   -2.5019653   -1.6908417 
C     0.7731567   -4.1142876   -0.4187873 
C     0.1694970   -3.6848044   -1.7065513 
C     1.9088335   -3.4799783    0.0431468 
C     0.6503615   -2.6255779    2.0771916 
C     1.8908406   -2.8462131    1.3709049 
C     0.3986209   -1.2649710    2.6241653 
C    -2.0206371   -1.6513087    2.1327375 
C    -0.9528268   -0.8405408    2.7122390 
C    -3.1032846   -1.0178152    0.0033318 
C    -2.8770984   -0.7616837    1.4004195 
C    -2.9110087    0.1025830   -0.9055338 
C    -1.4573155   -1.3571347   -2.3093606 
C    -1.9783737   -0.0326932   -2.0059272 
C     0.7319515   -2.5963661   -2.3609699 
C    -0.0930512   -1.4547308   -2.7404693 
C     2.6796956   -2.5978197   -0.8380455 
C     2.0480883   -2.0885859   -1.9921786 
C     2.8456383   -1.8217078    1.3595951 
C     3.3685773   -1.6735038   -0.0191445 
C     1.3869157   -0.1954620    2.5314330 
C     2.6493135   -0.5460948    1.9213425 
C     0.9873810    1.2163127    2.5162725 
C    -1.3385104    0.5391307    2.6236478 
C    -2.5683983    0.5669711    1.8592284 
C    -0.4126411    1.6115500    2.5207670 
C    -3.1365635    1.3988313   -0.3575292 
C    -2.8693382    1.6456243    1.0714015 
C    -2.7175212    2.5357692   -1.0339707 
C    -1.2062559    1.1454337   -2.4036907 
C    -1.7102430    2.4338539   -2.0488836 
C     0.7433433   -0.3015603   -2.7219128 
C     2.0705314   -0.6748461   -2.2538002 
C     0.2351598    1.0168927   -2.5882666 
C     3.4594504   -0.3080389   -0.2983917 
C     3.2569010    0.3749417    0.9847714 
C     2.7932175    0.2504572   -1.4542405 
C     1.9033457    2.1759986    1.9366094 
C     2.9040896    1.6787148    0.9865275 
C     1.4808464    3.4213098    1.4706880 
C    -0.8766777    2.8960842    1.9160803 
C    -2.1384081    2.8823884    1.2092690 
C    -2.2763058    3.5523876   -0.0570318 
C     0.1115870    3.8291986    1.4291625 
C    -0.8098615    3.5236804   -1.8556243 
C    -1.2174215    4.2594887   -0.6113486 
C    -0.0730173    4.4925538    0.1469130 
C     1.1529528    2.0625080   -2.1393670 
C     2.3648248    1.6417625   -1.4294258 
C     2.7216359    2.3994854   -0.2612370 
C     2.0422620    3.5890098    0.1024170 
C     0.5893316    3.3608581   -1.8413274 
C     1.0746065    4.1380232   -0.7028438 
