60 

C    -3.5479158    0.8397137    1.7558951 
C    -2.7879168    0.4532253    2.8441382 
C    -2.6140320   -1.0203902    2.7766761 
C    -3.9352970   -0.3760081    0.9927964 
C    -3.2555990   -1.4893055    1.5835835 
C    -3.8292243   -0.0901471   -0.3735533 
C    -3.0485722    1.8006642    0.8382732 
C    -3.4536324    1.3346778   -0.4789754 
C    -1.7500626    2.4029545    1.0291762 
C    -1.5305782    1.0463290    3.1019258 
C    -0.9841764    2.0422611    2.2216575 
C    -1.2807189   -1.3156950    3.0811431 
C    -0.6719730   -0.0605696    3.5221006 
C    -0.4836093   -2.1940318    2.2363400 
C    -2.5038859   -2.3414750    0.7436708 
C    -1.1454657   -2.7214277    1.1036315 
C    -3.2085302   -1.0483754   -1.2772730 
C    -2.5403278   -2.1613119   -0.6765469 
C    -2.6610853   -0.5350596   -2.4996572 
C    -2.7868143    1.7649504   -1.5976870 
C    -2.6123745    0.8620641   -2.6969304 
C    -1.0184762    2.8011243   -0.1831070 
C    -1.5628292    2.5453320   -1.4685929 
C     0.4091341    2.9446927   -0.1234762 
C     0.4836093    2.1940318    2.2363400 
C     1.1454657    2.7214277    1.1036315 
C     0.6719730    0.0605696    3.5221006 
C     1.2807189    1.3156950    3.0811431 
C     0.9841764   -2.0422611    2.2216575 
C     1.5305782   -1.0463290    3.1019258 
C     1.7500626   -2.4029545    1.0291762 
C    -0.4091341   -2.9446927   -0.1234762 
C    -1.2634591   -2.6266816   -1.2188912 
C     1.0184762   -2.8011243   -0.1831070 
C    -1.4448278   -1.0942986   -3.1158739 
C    -0.7352570   -2.1257723   -2.4433812 
C    -1.3746197    1.1977208   -3.3647151 
C    -0.7043468    2.1792776   -2.5868969 
C    -0.7039380    0.0014663   -3.7254506 
C     1.2634591    2.6266816   -1.2188912 
C     0.7352570    2.1257723   -2.4433812 
C     2.5038859    2.3414750    0.7436708 
C     2.5403278    2.1613119   -0.6765469 
C     2.6140320    1.0203902    2.7766761 
C     2.7879168   -0.4532253    2.8441382 
C     3.2555990    1.4893055    1.5835835 
C     3.0485722   -1.8006642    0.8382732 
C     3.5479158   -0.8397137    1.7558951 
C     3.9352970    0.3760081    0.9927964 
C     3.2085302    1.0483754   -1.2772730 
C     3.4536324   -1.3346778   -0.4789754 
C     3.8292243    0.0901471   -0.3735533 
C     1.5628292   -2.5453320   -1.4685929 
C     0.7043468   -2.1792776   -2.5868969 
C     2.7868143   -1.7649504   -1.5976870 
C     0.7039380   -0.0014663   -3.7254506 
C     1.4448278    1.0942986   -3.1158739 
C     2.6610853    0.5350596   -2.4996572 
C     1.3746197   -1.1977208   -3.3647151 
C     2.6123745   -0.8620641   -2.6969304 
