60 

C     2.1405348   -3.4039317    0.3758444 
C     0.9672783   -3.9804303   -0.0595281 
C    -0.0083639   -3.9250740    1.0299061 
C     1.9013268   -2.8929794    1.7507851 
C     0.5322513   -3.0738670    2.0696554 
C     2.5165701   -1.6516904    1.8631689 
C     2.8008793   -2.3802908   -0.3644531 
C     3.2846111   -1.4354173    0.6216930 
C     2.2651013   -1.9054775   -1.6040155 
C     0.3397165   -3.5139761   -1.2624704 
C     1.0073495   -2.5321537   -2.0762582 
C    -1.2551009   -3.6572389    0.4628132 
C    -1.0814483   -3.4082761   -0.9830808 
C    -2.1386167   -2.8531047    1.1977942 
C    -0.2403825   -1.9359089    2.5468910 
C    -1.6237887   -1.9760515    2.2311363 
C     1.8244847   -0.5266548    2.4694321 
C     0.4063330   -0.6237093    2.7419111 
C     2.4132094    0.7509129    2.2030300 
C     3.6245495   -0.1555859    0.2661813 
C     3.4189329    0.8891224    1.2167455 
C     2.5446906   -0.4880088   -1.9415259 
C     3.2617549    0.3428131   -1.0417485 
C     1.6566963    0.2085803   -2.8353538 
C     0.1420626   -1.7349059   -2.8868027 
C     0.5654464   -0.4575459   -3.3756421 
C    -1.8724457   -2.4088995   -1.6160962 
C    -1.2613858   -1.6258851   -2.6209179 
C    -3.1223947   -2.0998098    0.4916273 
C    -2.9387707   -1.7704845   -0.8707217 
C    -2.4132094   -0.7509129    2.2030300 
C    -3.4189329   -0.8891224    1.2167455 
C    -0.4063330    0.6237093    2.7419111 
C    -1.8244847    0.5266548    2.4694321 
C     1.6237887    1.9760515    2.2311363 
C     0.2403825    1.9359089    2.5468910 
C     3.1223947    2.0998098    0.4916273 
C     2.9387707    1.7704845   -0.8707217 
C     2.1386167    2.8531047    1.1977942 
C     1.2613858    1.6258851   -2.6209179 
C     1.8724457    2.4088995   -1.6160962 
C    -0.5654464    0.4575459   -3.3756421 
C    -1.6566963   -0.2085803   -2.8353538 
C    -0.1420626    1.7349059   -2.8868027 
C    -3.2617549   -0.3428131   -1.0417485 
C    -3.6245495    0.1555859    0.2661813 
C    -2.5446906    0.4880088   -1.9415259 
C    -2.5165701    1.6516904    1.8631689 
C    -3.2846111    1.4354173    0.6216930 
C    -0.5322513    3.0738670    2.0696554 
C    -1.9013268    2.8929794    1.7507851 
C     1.2551009    3.6572389    0.4628132 
C     1.0814483    3.4082761   -0.9830808 
C     0.0083639    3.9250740    1.0299061 
C    -1.0073495    2.5321537   -2.0762582 
C    -2.2651013    1.9054775   -1.6040155 
C    -2.8008793    2.3802908   -0.3644531 
C    -2.1405348    3.4039317    0.3758444 
C    -0.3397165    3.5139761   -1.2624704 
C    -0.9672783    3.9804303   -0.0595281 
