60 

C     2.6495275   -3.3845500   -0.5889877 
C     2.5427828   -3.1252362    0.8552463 
C     1.2178490   -3.4190862    1.2727128 
C     1.4045438   -3.7714590   -1.0771788 
C     0.5505299   -3.9701919    0.0773102 
C     0.9659420   -2.7703998   -2.0725670 
C     3.0268424   -2.1411044   -1.1972166 
C     1.9988255   -1.7584525   -2.1351195 
C     3.1101610   -1.8431964    1.1129024 
C     3.4303089   -1.2187620   -0.1894128 
C     2.4921841   -1.0343741    2.0609934 
C     0.4783190   -2.4983391    2.1221053 
C     1.1982772   -1.3704874    2.5950833 
C    -0.9851813   -2.3891128    2.0016973 
C    -0.7806645   -3.7553434   -0.0761623 
C    -1.5996627   -3.2192135    1.0059930 
C    -0.3824314   -2.3974567   -2.1653511 
C    -1.3019078   -3.1810104   -1.3413819 
C    -0.7512955   -1.0095859   -2.4945396 
C     1.6775619   -0.4013466   -2.3020254 
C     0.3056920   -0.0157650   -2.6241007 
C     3.2505363    0.1541210   -0.4031695 
C     2.5547627    0.5672734   -1.6220141 
C     2.5706698    0.4032124    1.9397633 
C     3.1084507    1.0288218    0.7723009 
C     0.5354238   -0.1131685    2.8898613 
C     1.4337377    0.9785599    2.5918349 
C    -1.6689988   -1.1274841    2.3589179 
C    -0.8647282    0.0329298    2.7661187 
C    -2.9521041   -0.8436017    1.7766790 
C    -2.8183377   -2.8452255    0.3949468 
C    -2.5694167   -2.7191520   -1.0712592 
C    -3.4927872   -1.7150490    0.7849606 
C    -2.1215489   -0.5617169   -2.2152713 
C    -3.0345600   -1.4353316   -1.5035463 
C    -3.8055041   -0.9077317   -0.4200798 
C    -2.3597212    0.8338007   -2.0574577 
C    -0.0141870    1.4111052   -2.6312206 
C    -1.3480226    1.8168929   -2.3389575 
C     2.2820621    1.9265238   -1.7815640 
C     1.0195916    2.3730435   -2.3725187 
C     2.8009726    2.3847268    0.5698420 
C     2.6931784    2.8883847   -0.7867816 
C     0.9773209    2.2908283    2.2507649 
C     1.7806227    3.0587278    1.3533597 
C    -1.3228228    1.3775384    2.4961744 
C    -0.4380303    2.4845389    2.2532073 
C    -3.2831092    0.5060357    1.3364695 
C    -3.7417591    0.4397833   -0.0607201 
C    -3.1913039    1.3460515   -0.9832415 
C    -2.5290596    1.5915161    1.7286107 
C    -1.5884951    2.9721205   -1.4973094 
C    -1.0569422    3.3400908    1.2454919 
C    -2.5954235    2.5701083   -0.5272205 
C    -2.3000076    2.7157584    0.8389677 
C     0.7238328    3.6270487   -1.7592295 
C     1.7799353    3.9626085   -0.8154021 
C     1.1574372    4.0230656    0.4702364 
C    -0.5464362    3.8109397   -1.1252275 
C    -0.2734322    4.0267779    0.3136824 
