60 

C     0.8478649    3.8723835    2.1649770 
C     1.6339371    3.9084119    0.9374989 
C     0.7794343    4.2446808   -0.1261588 
C    -0.5468184    3.9178193    1.7771431 
C    -0.6081210    4.2521358    0.4144963 
C    -1.1901308    2.6649016    2.1678616 
C     1.0645125    2.5975541    2.7228725 
C    -0.1892470    1.8872405    2.8583076 
C     2.3912868    2.6838095    0.8190077 
C     2.0968668    1.8926709    2.0087731 
C     2.4971853    1.9838953   -0.4165744 
C     0.7593322    3.4975146   -1.3257939 
C     1.6531325    2.4015565   -1.5417343 
C    -1.4489390    3.5543478   -0.4861791 
C    -0.6500104    3.2857413   -1.6696010 
C    -2.1349891    1.9883344    1.3223380 
C    -2.3534879    2.5180966   -0.0241743 
C    -2.3681226    0.5833636    1.5929459 
C    -0.2123850    0.4876335    2.8497063 
C    -1.4781193   -0.1310762    2.4956466 
C     2.1099431    0.4882588    1.9859214 
C     1.0229585   -0.2469632    2.6142677 
C     2.9702391    0.6077358   -0.3431060 
C     2.8548948   -0.1360095    0.9081282 
C     2.9561752   -0.1558160   -1.5537405 
C     1.2444058    1.3659914   -2.5038073 
C     1.9414060    0.1435710   -2.5203657 
C    -1.0401977    2.2973947   -2.5697689 
C    -0.0777331    1.3204784   -3.0268771 
C    -2.8187215    1.6166019   -1.0286622 
C    -2.2658397    1.6289342   -2.3322800 
C    -3.0190380   -0.2551749    0.5877809 
C    -3.1195968    0.2287202   -0.7219836 
C    -3.0030769   -1.6856401    0.7028131 
C    -1.5483372   -1.5384644    2.5875166 
C    -2.5583092   -2.3120275    1.8886165 
C     0.9415998   -1.6780442    2.4535267 
C    -0.3240545   -2.3224441    2.6282697 
C     2.8750653   -1.5609996    0.8894762 
C     1.9214195   -2.3270238    1.6448703 
C     3.1036529   -1.5741696   -1.5334048 
C     3.1149246   -2.2640659   -0.3399331 
C     1.2862829   -1.1362306   -2.8890909 
C     2.0286054   -2.1743111   -2.3460306 
C    -0.7781448    0.0394705   -3.1930355 
C    -2.1110292    0.2518571   -2.7733910 
C    -2.6986711   -0.6245352   -1.8550149 
C    -0.1491031   -1.2134493   -2.9421764 
C    -2.5977652   -2.5366966   -0.4404051 
C    -2.1551468   -1.9179207   -1.6391426 
C    -0.8436912   -2.2686742   -2.2126985 
C    -1.9832729   -3.5779046    1.5389087 
C    -0.6226394   -3.5491221    1.9357787 
C    -1.9262912   -3.6512806    0.0969370 
C     1.5395152   -3.5117935    0.8304246 
C     2.1770110   -3.3904464   -0.4203451 
C     1.3968038   -3.2373063   -1.6120216 
C    -0.0495517   -3.3102147   -1.5389069 
C     0.2361746   -3.9952876    0.8566257 
C    -0.5740481   -3.9280131   -0.3550324 
