60 

C     0.9574041    4.4201167    0.2090061 
C    -0.3630281    4.5041199    0.6317424 
C    -1.2521202    4.1307564   -0.5129695 
C     0.9126956    4.0613508   -1.2380606 
C    -0.4403848    3.6890067   -1.5889660 
C     1.9381695    3.1953404   -1.4963755 
C     1.8727189    3.5104456    0.8401783 
C     2.6681700    2.9604444   -0.2360293 
C     1.3887111    2.5954942    1.8722934 
C    -0.8051721    3.7779588    1.7515505 
C     0.0340083    2.7686868    2.3245758 
C    -2.3143052    3.3369088   -0.0009210 
C    -2.0811332    3.1435446    1.4053965 
C    -2.7214965    2.2278105   -0.7585070 
C    -0.6888088    2.3892248   -2.2261720 
C    -1.9359802    1.7887270   -1.9266630 
C     1.7348354    1.9107987   -2.1334771 
C     0.4173986    1.4607647   -2.5164977 
C     3.0622160    1.6461358   -0.2305142 
C     2.6297187    1.0088449   -1.5054649 
C     1.9322126    1.2451371    1.9357409 
C     2.9228911    0.8507800    0.9512868 
C     1.1501828    0.1438387    2.5223099 
C    -0.8059974    1.5892650    2.5362138 
C    -2.1067419    1.8425457    1.9341851 
C    -0.2946130    0.2875742    2.6161042 
C    -3.1738053    1.0505526   -0.1030156 
C    -2.7651157    0.7799209    1.2479585 
C    -2.1544050    0.3881718   -2.1067379 
C    -3.0767309   -0.0223814   -1.0701814 
C     0.2048111    0.0186146   -2.6060645 
C    -1.1352999   -0.5285528   -2.5065584 
C     2.4979700   -0.3765849   -1.6125707 
C     1.3228822   -0.9037333   -2.3227694 
C     3.2323682   -0.5045872    0.7571233 
C     3.1289246   -1.1389811   -0.5864055 
C     1.6597723   -1.1741164    2.4525563 
C     2.8353309   -1.4585863    1.6962444 
C     0.7873108   -2.3390320    2.3338229 
C    -1.1883019   -0.8531085    2.3172066 
C    -2.4171503   -0.5766282    1.6098859 
C    -0.6210950   -2.2039394    2.2551637 
C    -3.1384477   -1.3106262   -0.6576337 
C    -2.9684845   -1.6144128    0.7709766 
C    -1.3751345   -1.9627184   -2.2769412 
C    -2.4907156   -2.3529286   -1.4318073 
C     1.0884393   -2.2831580   -2.2190585 
C    -0.2547306   -2.8561307   -2.2952291 
C     2.7954232   -2.4977519   -0.4009446 
C     2.6416507   -2.7266381    1.0222383 
C     1.4814075   -3.3465680    1.5065659 
C     1.8788093   -3.1161059   -1.2974134 
C    -0.2474013   -4.0552569   -1.5127309 
C     0.7527154   -4.1965117    0.6248916 
C     1.0336000   -4.1223542   -0.8038602 
C    -1.3405807   -3.2750325    1.5627371 
C    -2.5158751   -2.9207161    0.8313372 
C    -2.3786796   -3.4599379   -0.5527352 
C    -0.6446119   -4.2583008    0.7841901 
C    -1.2664010   -4.2875003   -0.5702070 
