60 

C     4.3282806   -1.0350733    0.5215054 
C     4.4737967    0.3376298    0.6717312 
C     4.1811084    0.9896999   -0.6418554 
C     4.0423930   -1.2733279   -0.9328974 
C     3.7384234   -0.0109971   -1.5584240 
C     3.1644012   -2.3110204   -1.0332538 
C     3.3443348   -1.7619829    1.2619327 
C     2.8197282   -2.7476580    0.3417220 
C     2.4048819   -1.0377413    2.1229426 
C     3.7631784    1.0310163    1.6636393 
C     2.6740405    0.3571240    2.3399240 
C     3.4356093    2.1613862   -0.3779627 
C     3.2159482    2.2339055    1.0603741 
C     2.3456728    2.4329830   -1.2180916 
C     2.4653824    0.1428795   -2.2670169 
C     1.8848765    1.4369051   -2.2013168 
C     1.9381863   -2.2237350   -1.7890411 
C     1.5238575   -0.9845340   -2.3974514 
C     1.4969626   -3.0949328    0.3388692 
C     0.9805503   -2.9605414   -1.0517843 
C     1.0068133   -1.4732937    2.1808890 
C     0.6164148   -2.6471665    1.3939391 
C    -0.0637204   -0.5500541    2.5271972 
C     1.5648623    1.2802232    2.3747214 
C     1.9129644    2.4364797    1.5398276 
C     0.2321994    0.8736005    2.5059594 
C     1.1861445    3.0797377   -0.6970284 
C     0.9041314    3.0047860    0.7092575 
C     0.4882115    1.6465428   -2.4223530 
C     0.1026460    2.7877043   -1.6030450 
C     0.0793827   -0.7655938   -2.5550328 
C    -0.4401792    0.5925274   -2.6286695 
C    -0.3832219   -2.8737436   -1.2918719 
C    -0.8662772   -1.8243019   -2.1863621 
C    -0.7168604   -2.9474236    1.1652699 
C    -1.1958616   -3.3037075   -0.1878393 
C    -1.4678876   -0.9621701    2.4141342 
C    -1.7875382   -2.2481774    1.8281939 
C    -2.4865075    0.0195143    2.3515597 
C    -0.8061014    1.8491981    2.1353570 
C    -0.4667328    2.8795181    1.1519166 
C    -2.1539993    1.4401022    2.2508249 
C    -1.1813642    2.9867233   -1.2077219 
C    -1.4738632    3.2496729    0.2061621 
C    -1.8674639    0.8829685   -2.3709550 
C    -2.2413735    2.1463142   -1.7359089 
C    -2.2681647   -1.5538020   -2.1431963 
C    -2.7636617   -0.1841987   -2.1875128 
C    -2.5576292   -3.0503472   -0.2143185 
C    -2.9761648   -2.4592577    1.0841717 
C    -3.1173928   -2.2719833   -1.2431762 
C    -3.7219144   -0.2084480    1.5747549 
C    -3.9108756   -0.0765722   -1.2594207 
C    -3.8845124   -1.4152886    0.8304794 
C    -4.0337928   -1.3182007   -0.6164773 
C    -3.1749181    2.0582801    1.4606954 
C    -2.8123780    2.8808294    0.3971581 
C    -3.3334096    2.2420254   -0.8480425 
C    -4.0613802    1.0064772    0.9549643 
C    -4.1002367    1.1085200   -0.4920460 
