60 

C    -3.2346784   -2.8124569    0.3562169 
C    -1.9835882   -3.4857716    0.5636401 
C    -1.3097674   -2.9009487    1.7084242 
C    -3.2609206   -1.7282409    1.2603307 
C    -2.1297832   -1.7828271    2.1522972 
C    -3.5257673   -0.4706247    0.5883893 
C    -3.1631112   -2.1725346   -0.9402967 
C    -3.4469784   -0.7479773   -0.8211157 
C    -1.2284416   -3.4087060   -0.6340651 
C    -1.9751178   -2.5306050   -1.5834973 
C     0.1902907   -3.4310725   -0.6298724 
C     0.1099880   -2.8343224    1.7807416 
C     0.9162661   -3.2812954    0.6366368 
C     0.6234413   -1.8049968    2.6205893 
C    -1.5599913   -0.5917085    2.6694118 
C    -0.2002009   -0.7004710    3.0677981 
C    -3.0466634    0.7543595    1.1347502 
C    -2.0880352    0.7239042    2.2510703 
C    -3.0231546    1.8386883    0.2293506 
C    -2.8390367    0.1988624   -1.6793304 
C    -2.9445546    1.5478291   -1.2112008 
C    -1.2562778   -1.5856629   -2.3946164 
C    -1.6865741   -0.1835664   -2.4863123 
C     0.7910560   -2.9504786   -1.8365226 
C     0.0835126   -1.8971904   -2.6298752 
C     2.1570999   -2.6737420   -1.8846920 
C     2.2869704   -2.8790350    0.5750182 
C     2.9126562   -2.6608550   -0.6889533 
C     1.9745756   -1.3143141    2.4649241 
C     2.7876459   -1.8355687    1.4710423 
C     0.6356668    0.4662562    3.1726303 
C     1.9824398    0.1049192    2.7817374 
C    -1.2611045    1.8583661    2.4149810 
C     0.1185919    1.7226035    2.8694849 
C    -2.2517810    3.0302390    0.4726710 
C    -1.3276125    3.0192916    1.5363463 
C    -2.2083610    2.5602559   -1.8227568 
C    -1.8429929    3.5544155   -0.8046532 
C    -0.7028593    0.8386168   -2.8147665 
C    -1.0358692    2.2171485   -2.5750049 
C     1.0550298   -0.8885523   -2.9313874 
C     2.3286470   -1.3663484   -2.5304565 
C     0.7200875    0.4970450   -2.8433106 
C     3.6397702   -1.4026105   -0.6464141 
C     3.5985175   -0.9053803    0.6748049 
C     3.1931832   -0.5721525   -1.7403147 
C     2.7294708    0.9978329    2.0101429 
C     3.4601431    0.4784630    0.8642054 
C     0.9200889    2.6785460    2.1405685 
C     0.0327337    3.4887257    1.3192077 
C     2.1791913    2.2886165    1.6637351 
C    -0.5239296    3.9144561   -1.0256813 
C    -0.0144749    3.1333619   -2.1712405 
C     0.4521173    3.8694686    0.0232929 
C     1.7138144    1.3824796   -2.2450783 
C     2.8596267    0.8135287   -1.5310147 
C     3.1970722    1.3659593   -0.2532609 
C     2.5066754    2.5247806    0.2664321 
C     1.2739904    2.6871031   -1.8474050 
C     1.6412671    3.2438937   -0.5377765 
