60 

C    -3.6402586    0.6854011    2.2759064 
C    -3.6461835    1.6278472    1.1715184 
C    -3.9953477    0.9294708   -0.0326044 
C    -3.7361042   -0.6099680    1.7305665 
C    -4.0838264   -0.5035546    0.3268042 
C    -2.5701189   -1.3936675    2.1417857 
C    -2.3930529    0.7911946    2.9672840 
C    -1.7679308   -0.5226853    2.9672686 
C    -2.4243560    2.3604062    1.2301889 
C    -1.6490402    1.8425584    2.3694906 
C    -1.7164147    2.7057823    0.0494216 
C    -3.3367999    1.2815136   -1.2154177 
C    -2.2821653    2.2637403   -1.1948160 
C    -2.9662165    0.2617413   -2.1994011 
C    -3.5795607   -1.4573612   -0.5293084 
C    -3.1676340   -1.0924191   -1.9007916 
C    -1.9492488   -2.2892141    1.2289494 
C    -2.6134241   -2.4581354   -0.0413276 
C    -0.4942648   -2.4979769    1.3150335 
C    -0.3847180   -0.6277717    2.9872194 
C     0.2323754   -1.7850217    2.3441452 
C    -0.2323754    1.7850217    2.3441452 
C     0.3847180    0.6277717    2.9872194 
C    -0.2685396    2.9337408    0.1381954 
C     0.4942648    2.4979769    1.3150335 
C     0.4308526    3.0293427   -1.0910859 
C    -1.4046322    1.9680979   -2.3032990 
C    -1.7438507    0.6759545   -2.8628511 
C    -0.1070528    2.4158843   -2.2952500 
C    -0.6956548   -0.2382988   -3.2154855 
C    -2.1674356   -2.0059873   -2.3047714 
C    -1.8382552   -2.8260424   -1.1439021 
C    -0.9514709   -1.6209051   -2.9134658 
C     0.2685396   -2.9337408    0.1381954 
C    -0.4308526   -3.0293427   -1.0910859 
C     0.1070528   -2.4158843   -2.2952500 
C     1.7164147   -2.7057823    0.0494216 
C     1.6490402   -1.8425584    2.3694906 
C     2.4243560   -2.3604062    1.2301889 
C     1.7679308    0.5226853    2.9672686 
C     2.3930529   -0.7911946    2.9672840 
C     1.9492488    2.2892141    1.2289494 
C     2.5701189    1.3936675    2.1417857 
C     1.8382552    2.8260424   -1.1439021 
C     2.6134241    2.4581354   -0.0413276 
C     0.9514709    1.6209051   -2.9134658 
C     0.6956548    0.2382988   -3.2154855 
C     2.1674356    2.0059873   -2.3047714 
C     1.4046322   -1.9680979   -2.3032990 
C     2.2821653   -2.2637403   -1.1948160 
C     1.7438507   -0.6759545   -2.8628511 
C     3.5795607    1.4573612   -0.5293084 
C     3.1676340    1.0924191   -1.9007916 
C     3.3367999   -1.2815136   -1.2154177 
C     2.9662165   -0.2617413   -2.1994011 
C     3.6461835   -1.6278472    1.1715184 
C     3.6402586   -0.6854011    2.2759064 
C     3.7361042    0.6099680    1.7305665 
C     3.9953477   -0.9294708   -0.0326044 
C     4.0838264    0.5035546    0.3268042 
