60 

C     2.0159203    4.0441562    0.6599699 
C     2.4380361    3.4378601   -0.6060275 
C     1.4110204    3.5631521   -1.5403623 
C     0.6129207    4.3544410    0.5361963 
C     0.2457528    4.1598616   -0.8264265 
C    -0.1315727    3.5694272    1.5059700 
C     2.1144289    2.9929258    1.5970238 
C     0.8310079    2.7179026    2.1866801 
C     2.9662387    2.1113900   -0.3801397 
C     2.8059195    1.8477587    1.0314826 
C     2.6989691    1.0376667   -1.2781324 
C     0.9378353    2.4299786   -2.2621738 
C     1.6074754    1.1750120   -2.2323253 
C    -0.9007552    3.4489170   -1.1947099 
C    -0.5005426    2.4252661   -2.1709750 
C    -1.4208738    3.0459593    1.2011973 
C    -1.8758540    3.0678132   -0.2018315 
C    -1.8458525    1.9278314    1.9770291 
C     0.5041235    1.3912564    2.5865432 
C    -0.8717551    1.0855368    2.6494461 
C     2.5666534    0.5368133    1.4903942 
C     1.4323412    0.2788394    2.3550222 
C     3.0571774   -0.2701106   -0.8004662 
C     3.0668447   -0.5171958    0.6320527 
C     2.7202436   -1.3727566   -1.6369402 
C     0.8391997   -0.0223398   -2.5659256 
C     1.4915470   -1.2593723   -2.3978444 
C    -1.2707211    1.2603940   -2.3831758 
C    -0.6098358   -0.0138018   -2.6164047 
C    -2.8201524    2.1228272   -0.6163711 
C    -2.5879007    1.2978892   -1.8167770 
C    -2.9437475    1.0899886    1.5881619 
C    -3.5269836    1.2676545    0.3155065 
C    -1.3642388   -0.2695379    2.6644595 
C    -2.6933175   -0.2668938    2.0904880 
C     0.9546802   -1.0800133    2.4659400 
C    -0.4813243   -1.3631276    2.5445524 
C     2.9044711   -1.8381849    1.0966440 
C     1.8195879   -2.1160500    2.0006952 
C     2.8342048   -2.7093801   -1.1829358 
C     3.0065146   -2.9714543    0.1896003 
C     0.7736284   -2.5236536   -2.2604354 
C     1.6267072   -3.4502192   -1.6037857 
C    -1.3482063   -1.2604375   -2.3537363 
C    -0.6282016   -2.4813468   -2.0095318 
C    -3.3335593    0.1204842   -1.7214232 
C    -3.9735286    0.1060072   -0.4044589 
C    -2.7129857   -1.1561162   -1.9306248 
C    -3.1398179   -1.3803161    1.3765656 
C    -3.8326455   -1.1715081    0.1227009 
C    -3.1847487   -2.0226456   -0.8672596 
C    -0.9926521   -2.5714692    1.8682781 
C    -1.1026316   -3.3020464   -0.8883746 
C    -2.2354223   -2.4915844    1.2020511 
C    -2.2811521   -2.8667880   -0.2171735 
C     1.3065537   -3.4393561    1.6446912 
C     2.0894805   -4.0100965    0.6011996 
C     1.1777822   -4.2229230   -0.5014143 
C    -0.0814937   -3.5287416    1.3431652 
C    -0.1647931   -3.9655435   -0.0555443 
