60 

C     1.9110276   -3.4905367   -1.6207959 
C     1.5589970   -3.8413406   -0.2909650 
C     0.1263959   -3.8722168   -0.1759130 
C     0.7144193   -3.1356339   -2.3154596 
C    -0.4029178   -3.4064944   -1.4543085 
C     0.8456970   -1.7690926   -2.7542327 
C     2.7276183   -2.3056453   -1.5338271 
C     2.1468001   -1.2658324   -2.3248674 
C     2.3040274   -2.9880375    0.6277337 
C     3.0526230   -2.0127528   -0.1705211 
C     1.6853339   -2.5579253    1.7911570 
C    -0.5181224   -3.4878506    1.0363583 
C     0.2970656   -2.8851290    2.0696682 
C    -1.8692768   -3.0353621    0.9268076 
C    -1.5687865   -2.5813760   -1.5145167 
C    -2.4005081   -2.5765230   -0.3710428 
C    -0.2608510   -0.8851740   -2.8426481 
C    -1.5526339   -1.3706256   -2.3710010 
C     0.0461205    0.5464126   -2.8880242 
C     2.3508481    0.0842499   -1.9945479 
C     1.3526595    1.0390188   -2.4801546 
C     3.2125494   -0.6635826    0.2344061 
C     3.1162139    0.3792509   -0.7885832 
C     1.9608798   -1.2227684    2.2984875 
C     2.8017783   -0.3078571    1.5955604 
C    -0.2180103   -1.7964857    2.8548372 
C     0.7946603   -0.7512291    2.9684343 
C    -2.3969757   -2.1512309    1.8942662 
C    -1.5559490   -1.4241902    2.7728196 
C    -3.3273588   -1.4786280   -0.1231514 
C    -3.2868547   -1.1917306    1.2601682 
C    -2.5839429   -0.4135539   -2.1946471 
C    -3.4136926   -0.4080247   -1.0143791 
C    -1.0566920    1.4560132   -2.8086235 
C    -2.3308239    0.9503490   -2.5123871 
C    -0.9496148    2.7690304   -2.1546626 
C     1.4629218    2.3987473   -2.0441614 
C     0.2807251    3.2349308   -1.7880066 
C     3.1585031    1.7339274   -0.3595114 
C     2.4203482    2.7448571   -1.0759220 
C     2.6355263    1.0568213    1.9389268 
C     3.0266554    2.0630912    1.0110579 
C     0.4374368    0.6342486    3.0015998 
C     1.4480581    1.5390358    2.6108471 
C    -1.9412727    0.0057742    2.6976633 
C    -3.0369259    0.1180767    1.7563326 
C    -0.9739322    1.0208281    2.8041935 
C    -3.4905038    0.9646758   -0.5043820 
C    -2.9496059    1.8090131   -1.5083857 
C    -2.0937522    2.9033017   -1.2432521 
C    -3.1508318    1.2409263    0.8709928 
C    -1.2576948    2.2690504    2.1237617 
C    -1.8328919    3.2588200    0.0953175 
C    -2.3080023    2.3640600    1.1454505 
C     0.4790393    3.9210473   -0.5013150 
C     1.8285805    3.7010073   -0.1278462 
C     2.1629946    3.2369685    1.1583531 
C     1.1309171    2.8693102    2.0696483 
C    -0.5433141    3.7770099    0.4737951 
C    -0.2056824    3.1869758    1.7633975 
