60 

C     0.8896704   -3.6919596   -1.1201473 
C    -0.4863308   -3.7701841   -1.1739155 
C    -1.0044361   -3.8472184    0.2046562 
C     1.2744844   -3.6374528    0.3133390 
C     0.0808837   -3.6064196    1.1085155 
C     2.3295290   -2.7486705    0.4796480 
C     1.5895296   -2.6609157   -1.7844349 
C     2.6726478   -2.2617840   -0.8672527 
C     0.9039764   -1.6644995   -2.5378020 
C    -1.2390940   -2.7965905   -1.8975476 
C    -0.5698732   -1.7347172   -2.5924371 
C    -2.1806672   -3.0792239    0.2497330 
C    -2.4132216   -2.5039386   -1.0823912 
C    -2.4039883   -2.2733455    1.3806146 
C    -0.0268058   -2.5960254    2.1311580 
C    -1.3415287   -2.0643284    2.3472381 
C     2.3636191   -1.8383940    1.6053986 
C     1.1448503   -1.7403893    2.4258431 
C     3.2095471   -0.7050320    1.4490271 
C     3.3268686   -1.0762244   -1.0193215 
C     3.7888140   -0.4024057    0.1590385 
C     1.5834163   -0.3544402   -2.6795439 
C     2.8007450   -0.0871885   -1.9605391 
C     0.8286141    0.7726395   -3.0535178 
C    -1.3369204   -0.5021062   -2.8156827 
C    -0.6331137    0.6869956   -3.1889014 
C    -3.0538394   -1.2874474   -1.1906001 
C    -2.5942244   -0.3106028   -2.1535571 
C    -3.1678474   -1.0476210    1.2608807 
C    -3.5308302   -0.5805844   -0.0128114 
C    -1.5442550   -0.7517119    2.9094245 
C    -2.6765527   -0.1155001    2.2476903 
C     0.9002697   -0.4915174    3.0623850 
C    -0.4471415    0.0088846    3.2819675 
C     2.8793888    0.5710514    2.0510254 
C     1.7503124    0.6624777    2.8485672 
C     3.6797606    0.9872108   -0.0863454 
C     3.0583029    1.1995843   -1.3780728 
C     3.1645335    1.6349061    1.0788189 
C     1.1462512    2.0963286   -2.5646155 
C     2.1470652    2.2894628   -1.5613163 
C    -1.1721174    1.9618917   -2.9192537 
C    -0.0841272    2.8131140   -2.4790709 
C    -3.0033053    0.9973517   -1.6726679 
C    -3.4823339    0.8341981   -0.3099737 
C    -2.2715464    2.1310302   -2.0258628 
C    -2.6496612    1.2541844    1.9718152 
C    -3.0798389    1.7463637    0.6775175 
C    -0.4497961    1.4469279    3.0737617 
C     0.9071143    1.8528230    2.7908299 
C    -1.5192085    2.0583766    2.4085159 
C     2.2640561    2.6834902    0.9138178 
C     1.8062081    3.0909194   -0.4151630 
C     1.1547685    2.8457144    1.8391299 
C    -0.4710801    3.4931539   -1.3033560 
C    -1.8535261    3.0868362   -0.9999858 
C    -2.2290659    2.8767271    0.3243714 
C    -1.2616167    3.0695208    1.4010247 
C     0.4781746    3.6281768   -0.2647379 
C     0.0544924    3.4480976    1.1150721 
