60 

C     0.0228833    5.1248274    0.7727107 
C     0.9967436    5.1175302   -0.2785021 
C     0.3654291    4.7987793   -1.4984862 
C    -1.2459901    4.6362227    0.1780320 
C    -1.0519196    4.4624229   -1.2195910 
C    -1.7010290    3.5091252    0.9391030 
C     0.4114631    4.1085764    1.6829016 
C    -0.6798153    3.2046314    1.9483997 
C     2.0073700    4.0775073   -0.0131591 
C     1.6846462    3.4924056    1.2409303 
C     0.9830902    3.6356351   -2.0617881 
C     2.0579209    3.1871900   -1.1536788 
C    -1.2996963    3.1810465   -1.7901923 
C    -0.0215948    2.6814752   -2.3545227 
C    -2.2779617    2.3815425    0.3153211 
C    -2.0659722    2.2061872   -1.1154466 
C    -2.4220439    1.1798577    1.1166171 
C    -0.4405291    1.8787499    2.3646072 
C    -1.4783885    0.8824146    2.1754955 
C     1.8757009    2.1146614    1.4605962 
C     0.9396763    1.4024804    2.3314248 
C     2.2471660    1.8160922   -0.9593559 
C     2.4344343    1.3124017    0.3889160 
C     0.2692357    1.2911358   -2.3670287 
C     1.5458546    0.8524504   -1.8390277 
C    -2.0176988    0.8451213   -1.6277028 
C    -0.8159312    0.3549978   -2.3055749 
C    -3.0535394    0.0958172    0.4753603 
C    -2.7964971   -0.0953148   -0.9628194 
C    -3.0856842   -1.1855982    1.0464285 
C    -1.2339555   -0.5167095    2.5202429 
C    -2.0972635   -1.5535687    2.0162033 
C     1.1615576    0.0460847    2.5180543 
C     0.1039774   -0.9212762    2.7781090 
C     2.5940137   -0.0903372    0.5694368 
C     2.1746079   -0.6584539    1.7908027 
C     1.7892716   -0.5241480   -1.7171458 
C     2.5978885   -0.9925953   -0.5844957 
C    -0.5405551   -1.0538484   -2.3821459 
C     0.8521267   -1.4759398   -2.3076797 
C    -2.6569709   -1.5085073   -1.2011530 
C    -3.0013848   -2.1761990    0.0004825 
C    -1.5619282   -2.0177056   -1.9931690 
C    -1.6183026   -2.8976837    1.7243028 
C    -2.2366826   -3.2916873    0.4603929 
C     0.5895916   -2.2419406    2.4830308 
C     1.9186117   -2.0739254    1.9124210 
C    -0.2607803   -3.2819907    1.9658868 
C     2.7448664   -2.3633145   -0.3679282 
C     2.4168045   -2.9428618    0.9568248 
C     1.1641190   -2.8549751   -2.2234370 
C     2.2316882   -3.2969225   -1.3328886 
C    -1.2005171   -3.3764600   -1.7672045 
C    -1.5326705   -4.0224733   -0.4914516 
C     0.1224775   -3.8340259   -2.0874240 
C     0.3430083   -4.2915103    1.1171324 
C     1.7214117   -4.1739601    0.7113118 
C     1.8326733   -4.5181203   -0.6978837 
C    -0.3565447   -4.7502041   -0.0801216 
C     0.5515375   -4.8951127   -1.1804742 
