60 

C     5.1587709   -0.1245416    0.0283786 
C     4.6744589    0.0466317    1.3498714 
C     3.7902677   -1.0394039    1.7135851 
C     4.5045817   -1.3213718   -0.4715380 
C     3.6379905   -1.8901636    0.5776103 
C     3.8883375   -1.0308703   -1.7110559 
C     4.5753095    0.9707436   -0.7409049 
C     3.9367091    0.4461733   -1.8821708 
C     3.8663012    1.2287952    1.4535889 
C     3.7558491    1.8134870    0.1443327 
C     2.6177072   -0.5070603    2.3849102 
C     2.6635651    0.9314435    2.2184102 
C     1.3914796   -1.1583113    2.2821900 
C     2.3263088   -2.3646146    0.2787740 
C     1.3029384   -2.2543659    1.3219651 
C     2.5710391   -1.4414825   -1.9837712 
C     1.8244906   -2.2826159   -1.0843663 
C     2.6406170    0.8646462   -2.2475636 
C     1.8325955   -0.3108496   -2.5473189 
C     2.4775914    2.2822366   -0.2584180 
C     1.9459918    1.9127665   -1.5672784 
C     1.4792606    1.6184324    1.9680671 
C     1.4632942    2.4870623    0.7863829 
C     0.1727483   -0.3978523    2.5602002 
C     0.2149138    1.0198479    2.3995242 
C    -1.1074569   -1.0879164    2.4961398 
C     0.0278344   -2.7127486    1.0194430 
C    -1.1625219   -2.3112139    1.7616765 
C     0.4232140   -2.4155751   -1.3511385 
C    -0.3885204   -2.9759971   -0.3305949 
C     0.4454400   -0.2777344   -2.6222206 
C    -0.2557810   -1.5087009   -2.2848122 
C     0.5403772    2.0568914   -1.8479878 
C    -0.2386279    1.0025514   -2.4873891 
C     0.2382574    2.9800356    0.3895432 
C    -0.1759962    2.9558093   -1.0103572 
C    -1.0243712    1.7607451    2.1600133 
C    -0.9696785    2.8341298    1.1990220 
C    -2.3132687   -0.3247678    2.5770978 
C    -2.2711092    1.1242050    2.3462585 
C    -3.5182840   -0.8320582    2.0411469 
C    -2.3195537   -2.6582138    0.9845369 
C    -1.8193669   -2.9480054   -0.3690061 
C    -3.5320102   -1.9576180    1.1621202 
C    -1.6484921   -1.4976262   -2.3219562 
C    -2.4506159   -2.3510358   -1.4663094 
C    -1.6858904    1.0187722   -2.4290729 
C    -2.3900348   -0.2411632   -2.5109148 
C    -1.5716072    3.0148416   -1.0268976 
C    -2.0700585    3.0580673    0.3528786 
C    -2.3662858    2.0790282   -1.7254102 
C    -3.4488297    1.4777087    1.5586180 
C    -4.2250382    0.2860970    1.3899578 
C    -3.2797715    2.3245058    0.4374890 
C    -3.5634008    1.8005267   -0.9054548 
C    -4.2853347   -1.5462054   -0.0138981 
C    -3.7172666   -1.6916549   -1.2759546 
C    -3.6766602   -0.3923420   -1.9539928 
C    -4.6747607   -0.1296307    0.1379151 
C    -4.2376467    0.5875299   -1.0538937 
