60 

C     1.0310006   -4.5257008    0.1427477 
C     0.1498929   -4.2038227    1.2636804 
C    -1.1403893   -4.0820050    0.7270775 
C     0.3026433   -4.2847226   -1.1116065 
C    -1.0378381   -4.1196229   -0.7734382 
C     0.9813559   -3.2392625   -1.8583963 
C     2.1109086   -3.6540382    0.1723957 
C     2.2105940   -2.9892182   -1.1254014 
C     0.7116489   -3.0736139    1.9757261 
C     1.9944852   -2.7949390    1.3473977 
C    -0.1057713   -1.9624497    2.3748519 
C    -1.9785804   -3.0220836    1.0757828 
C    -1.5397228   -2.0380158    2.0410542 
C    -1.7824336   -3.0361834   -1.2714333 
C    -2.5602575   -2.5018958   -0.1606193 
C     0.2661709   -2.1083070   -2.3842084 
C    -1.1823701   -2.0782693   -2.1706357 
C     0.9690897   -0.8064566   -2.5318160 
C     2.7793078   -1.7505092   -1.1473340 
C     2.2746509   -0.6964139   -1.9998407 
C     2.5279633   -1.5023535    1.3226962 
C     3.1750264   -1.1005828    0.0942454 
C     0.5003336   -0.6344143    2.5402576 
C     1.8765324   -0.4498846    2.1115680 
C    -0.3398273    0.5617022    2.6778273 
C    -2.2913167   -0.8624927    2.0862133 
C    -1.7470884    0.3776849    2.5543443 
C    -3.1646131   -1.2432552   -0.2111648 
C    -3.2777168   -0.5389588    1.0376821 
C    -1.8421300   -0.8326457   -2.2654038 
C    -2.9463188   -0.4625724   -1.3972736 
C     0.2421302    0.4602759   -2.6991572 
C    -1.1749695    0.3788135   -2.6666213 
C     0.8696134    1.7639138   -2.4092624 
C     2.7919589    0.5541967   -1.5015214 
C     3.3709908    0.2597214   -0.1917624 
C     2.1880601    1.7997233   -1.7580189 
C     2.3754590    0.8571015    1.9758825 
C     3.2395195    1.1958730    0.8417029 
C     0.1824950    1.9211151    2.4503142 
C     1.5850998    2.0374318    2.2494764 
C    -0.6773793    2.9771937    1.8518856 
C    -2.5609211    1.4226042    2.0119523 
C    -3.4737923    0.8437221    1.0389257 
C    -2.0256825    2.6229833    1.5304241 
C    -3.0472892    0.9653667   -1.3673776 
C    -1.9897165    1.4855243   -2.2264137 
C    -3.3467608    1.6282154   -0.1547888 
C    -2.5943874    2.8243260    0.1826154 
C     0.0095622    2.8953834   -2.1940963 
C    -1.4096630    2.7123127   -1.9890987 
C    -1.7985581    3.4544859   -0.7731351 
C    -0.0941214    3.9760273    0.9928299 
C     0.4161695    3.9544881   -1.3023267 
C    -0.6586381    4.1465123   -0.3329026 
C     2.5375207    2.8753430   -0.8282986 
C     3.0380471    2.5295532    0.4824063 
C     2.1314158    3.1196529    1.4640665 
C     1.6304024    3.9552244   -0.6345104 
C     1.3182046    4.0382181    0.8198344 
