60 

C     0.4297261    4.4060530    0.1670103 
C    -0.8830571    4.3136063   -0.2563508 
C    -0.9057188    3.6121659   -1.5859285 
C     1.2762223    3.9365969   -0.9605928 
C     0.4198016    3.2850359   -1.9416804 
C     2.3377045    3.2460165   -0.4444987 
C     0.8612561    3.6917169    1.3575610 
C     2.1449696    3.1511262    1.0189312 
C    -0.0765106    2.8483575    2.0870362 
C    -1.8584875    3.7167802    0.5558350 
C    -1.4616536    2.9461303    1.6995910 
C    -1.9522703    2.6471138   -1.5525646 
C    -2.6140041    2.8034764   -0.2961597 
C    -1.7363778    1.3257102   -2.0889366 
C     0.7217415    1.9549165   -2.4027787 
C    -0.4186067    1.0759259   -2.6796824 
C     2.7147621    1.9524533   -0.9342396 
C     1.9682033    1.3156666   -1.9860321 
C     2.5324933    1.8790096    1.3978314 
C     3.0352488    1.1586793    0.2040184 
C     0.3902781    1.5498102    2.6213970 
C     1.7527245    1.1401876    2.3427466 
C    -0.5728274    0.4721293    2.9363359 
C    -2.2803142    1.7395007    1.6980902 
C    -2.9622573    1.6560185    0.4238682 
C    -1.9131696    0.5595663    2.3701817 
C    -2.5071543    0.2145980   -1.5556167 
C    -3.1132604    0.4095028   -0.2411602 
C    -2.1931991   -1.1503353   -1.9809426 
C    -0.1292367   -0.2335894   -3.0687703 
C    -1.0821474   -1.3278767   -2.8773690 
C     2.1515556   -0.1175087   -2.1495793 
C     1.2045303   -0.7740563   -2.9908909 
C     3.0867174   -0.2539328    0.1516532 
C     2.8141643   -0.9175935   -1.1190608 
C     2.1394380   -0.2272593    2.4536945 
C     2.8555407   -0.9230637    1.3790455 
C    -0.0960757   -0.8418089    3.2053902 
C     1.2787247   -1.1450255    3.0649756 
C    -0.8103498   -2.0521353    2.7723367 
C    -2.5953192   -0.6245450    1.9445740 
C    -3.2117083   -0.6905652    0.6409594 
C    -2.0621799   -1.9574209    2.2026315 
C    -2.5245599   -2.2684441   -1.1518906 
C    -3.0694206   -2.0220065    0.1509814 
C    -2.4055463   -2.8264488    1.1069536 
C    -1.6232154   -3.4078322   -1.0125346 
C    -1.4163492   -3.6179384    0.4145201 
C    -0.3651730   -2.5394555   -2.9070129 
C     1.0663144   -2.1901030   -2.9743987 
C    -0.5493802   -3.5467866   -1.9019583 
C     2.5659815   -2.3314719   -1.0690618 
C     1.7466033   -2.9547812   -2.0459914 
C     0.7556275   -3.8346010   -1.3655753 
C     2.4167032   -2.3001038    1.3919054 
C     1.4236656   -2.4404856    2.4209845 
C     0.1626455   -3.0112350    2.1976710 
C    -0.0971783   -3.7150328    0.9598805 
C     2.2253128   -2.9664396    0.1928510 
C     1.0080522   -3.7979682    0.0098163 
