60 

C     2.5382625   -3.3231854    1.3161598 
C     1.8118608   -3.8675198    0.2171430 
C     2.0701742   -3.0802254   -0.9819166 
C     3.2017357   -2.1731647    0.8438557 
C     2.9922066   -2.0430007   -0.5911765 
C     2.7882050   -1.0363860    1.6239775 
C     1.4999531   -2.8385280    2.2286733 
C     1.6543475   -1.4401298    2.4529968 
C     0.4469175   -4.0685744    0.5939649 
C     0.2263608   -3.3507155    1.8736847 
C    -0.5382793   -4.0073583   -0.3945606 
C     0.9962234   -2.7789048   -1.8952646 
C    -0.2892520   -3.3386244   -1.6650505 
C     1.0288449   -1.5037422   -2.5399776 
C     2.9572961   -0.7494170   -1.1696583 
C     2.0631386   -0.5566210   -2.2662315 
C     2.8576165    0.2532076    1.1080276 
C     3.1835508    0.4126651   -0.3158093 
C     2.0571400    1.2569307    1.7839705 
C     0.5315936   -0.5729365    2.5796075 
C     0.7893242    0.8553077    2.3971879 
C    -0.9396852   -2.5489595    2.0526224 
C    -0.8051231   -1.1325039    2.4434462 
C    -1.8544707   -3.6897672    0.0207232 
C    -2.0744411   -2.9542946    1.2451904 
C    -1.5070215   -2.6003650   -1.9831081 
C    -2.5284520   -3.0054975   -1.0624057 
C    -0.1819259   -0.7465435   -2.8199400 
C    -1.4601487   -1.2218187   -2.4397058 
C     1.5580352    0.7611810   -2.6013976 
C     0.1379771    0.6601188   -2.8440810 
C     2.9671423    1.6914377   -0.8604747 
C     2.0890757    1.8818112   -2.0205936 
C     2.2266932    2.5922036    1.3311603 
C     2.7216144    2.7836051   -0.0159640 
C     1.2352476    3.5668776    1.5700778 
C    -0.3124382    1.7956547    2.3948282 
C    -0.0434243    3.1940848    2.0632452 
C    -1.8849477   -0.1927965    2.1573683 
C    -1.6511812    1.2477851    2.1573066 
C    -3.0841924   -2.0128979    0.9680551 
C    -3.3370081   -2.0142299   -0.5004720 
C    -3.0096741   -0.6864739    1.4050360 
C    -2.4089529   -0.2208302   -1.9490700 
C    -3.3408668   -0.6844063   -0.9418178 
C    -3.4637281    0.1132457    0.2715178 
C    -0.7508562    1.6756307   -2.4150010 
C    -2.0601835    1.2019079   -1.9485728 
C     1.2659187    3.0622046   -1.8087607 
C     1.8395467    3.7402221   -0.6734220 
C     1.0400738    4.3353672    0.3102350 
C    -0.1651908    2.9758180   -1.9596199 
C    -1.0104774    3.9630303    1.2995447 
C    -0.3287724    4.4508447    0.0875488 
C    -0.9435580    3.8109511   -1.0649111 
C    -2.5480105    2.0666791    1.3717575 
C    -3.2043010    1.4295575    0.2416806 
C    -2.7114268    2.0493605   -0.9867006 
C    -2.1661368    3.3355579    0.8984562 
C    -2.1719499    3.2771703   -0.5933856 
