60 

C     1.0393211   -4.3694935    0.2932352 
C    -0.2967739   -4.3389323    0.7595841 
C    -1.1191874   -3.9665450   -0.3683985 
C     1.1007667   -3.9619244   -1.0957147 
C    -0.2301361   -3.6538973   -1.5201246 
C     2.1347785   -2.9910179   -1.2087094 
C     1.8547784   -3.4942842    1.0676272 
C     2.5882771   -2.6585939    0.1676190 
C    -0.3194586   -3.5126104    1.9577899 
C     1.0094191   -2.9049466    2.0848230 
C    -1.4323231   -2.7116020    2.1814588 
C    -2.2382027   -3.1682882   -0.1369668 
C    -2.4928213   -2.7186035    1.1988818 
C    -2.5832608   -2.0639246   -1.0412397 
C    -0.4759214   -2.4883167   -2.3130895 
C    -1.7248539   -1.7172651   -2.1166971 
C     1.9515124   -1.9440373   -2.1018093 
C     0.6752719   -1.7396893   -2.7405110 
C     2.5398039   -0.6491796   -1.8497298 
C     2.8583001   -1.3276853    0.5132240 
C     3.0809016   -0.3534454   -0.5704467 
C     1.1579296   -1.5346207    2.3856917 
C     2.2708524   -0.8230973    1.7648104 
C    -1.2880973   -1.3345446    2.6259897 
C    -0.0253864   -0.7320118    2.7565610 
C    -3.0499781   -1.4094048    1.1230317 
C    -3.1846028   -1.0155197   -0.2452263 
C    -2.3776947   -0.5477972    2.0317346 
C    -3.0809016    0.3534454   -0.5704467 
C    -1.7751838   -0.3504417   -2.5432063 
C    -2.5398039    0.6491796   -1.8497298 
C     0.6081488   -0.3338155   -3.0601925 
C     1.7751838    0.3504417   -2.5432063 
C    -0.6081488    0.3338155   -3.0601925 
C     1.7248539    1.7172651   -2.1166971 
C     3.1846028    1.0155197   -0.2452263 
C     2.5832608    2.0639246   -1.0412397 
C     2.3776947    0.5477972    2.0317346 
C     3.0499781    1.4094048    1.1230317 
C     0.0253864    0.7320118    2.7565610 
C     1.2880973    1.3345446    2.6259897 
C    -2.2708524    0.8230973    1.7648104 
C    -2.8583001    1.3276853    0.5132240 
C    -1.1579296    1.5346207    2.3856917 
C    -2.5882771    2.6585939    0.1676190 
C    -1.9515124    1.9440373   -2.1018093 
C    -0.6752719    1.7396893   -2.7405110 
C     0.4759214    2.4883167   -2.3130895 
C    -2.1347785    2.9910179   -1.2087094 
C     0.2301361    3.6538973   -1.5201246 
C    -1.1007667    3.9619244   -1.0957147 
C     2.2382027    3.1682882   -0.1369668 
C     2.4928213    2.7186035    1.1988818 
C     1.4323231    2.7116020    2.1814588 
C     1.1191874    3.9665450   -0.3683985 
C    -1.0094191    2.9049466    2.0848230 
C    -1.8547784    3.4942842    1.0676272 
C    -1.0393211    4.3694935    0.2932352 
C     0.3194586    3.5126104    1.9577899 
C     0.2967739    4.3389323    0.7595841 
