60 

C    -4.1531877    0.3044382    1.3937393 
C    -3.3981832    1.3048896    1.9765850 
C    -2.4128673    0.6961386    2.8947880 
C    -3.6070766   -0.9841935    1.9184636 
C    -2.4653428   -0.7191417    2.7624472 
C    -3.4752028   -1.8364580    0.8512402 
C    -4.2479135    0.2000437   -0.0475799 
C    -3.9536162   -1.1756969   -0.3756789 
C    -3.6488073    1.2111251   -0.8347260 
C    -2.6880594    2.2803270    1.1873682 
C    -2.8652601    2.2578705   -0.2031998 
C    -1.2026777    1.3993754    2.7715453 
C    -1.3452977    2.3904111    1.7146339 
C     0.0237098    0.7260753    2.9782417 
C    -1.2291475   -1.4200315    2.5684800 
C    -0.0237098   -0.7260753    2.9782417 
C    -2.2171018   -2.4910380    0.5686516 
C    -1.0976627   -2.3581094    1.4554801 
C    -3.0542615   -1.5017085   -1.3914981 
C    -2.0129525   -2.4031319   -0.8364680 
C    -2.9427593    0.8536927   -2.0600967 
C    -2.6489634   -0.5176515   -2.3565992 
C    -1.7248153    2.5527720   -1.0569022 
C    -1.8963640    1.8307574   -2.2891432 
C    -0.2172231    2.6709523    0.9038426 
C    -0.4162746    2.7856942   -0.5380118 
C     1.2291475    1.4200315    2.5684800 
C     1.0976627    2.3581094    1.4554801 
C     2.4653428    0.7191417    2.7624472 
C     1.2026777   -1.3993754    2.7715453 
C     2.4128673   -0.6961386    2.8947880 
C     0.2172231   -2.6709523    0.9038426 
C     1.3452977   -2.3904111    1.7146339 
C    -0.7229446   -2.5243873   -1.4215390 
C     0.4162746   -2.7856942   -0.5380118 
C    -1.4678641   -0.8233488   -3.1062648 
C    -0.5271404   -1.8920926   -2.6745555 
C    -0.7894221    1.5138898   -3.0862103 
C    -0.6964295    0.2007366   -3.6670333 
C     0.7229446    2.5243873   -1.4215390 
C     0.5271404    1.8920926   -2.6745555 
C     2.2171018    2.4910380    0.5686516 
C     2.0129525    2.4031319   -0.8364680 
C     3.6070766    0.9841935    1.9184636 
C     3.4752028    1.8364580    0.8512402 
C     3.3981832   -1.3048896    1.9765850 
C     2.6880594   -2.2803270    1.1873682 
C     4.1531877   -0.3044382    1.3937393 
C     1.7248153   -2.5527720   -1.0569022 
C     2.8652601   -2.2578705   -0.2031998 
C     0.7894221   -1.5138898   -3.0862103 
C     0.6964295   -0.2007366   -3.6670333 
C     1.4678641    0.8233488   -3.1062648 
C     1.8963640   -1.8307574   -2.2891432 
C     3.0542615    1.5017085   -1.3914981 
C     3.9536162    1.1756969   -0.3756789 
C     4.2479135   -0.2000437   -0.0475799 
C     3.6488073   -1.2111251   -0.8347260 
C     2.6489634    0.5176515   -2.3565992 
C     2.9427593   -0.8536927   -2.0600967 
