60 

C    -0.7509910   -4.6582217   -0.0999736 
C     0.6155300   -4.7369842   -0.2321891 
C     1.2074265   -4.0924536    0.9463059 
C    -1.0960802   -3.9927055    1.1458779 
C     0.1350995   -3.5642570    1.7914658 
C    -2.0781458   -3.0254441    0.8440234 
C    -1.3263798   -3.8699466   -1.2081157 
C    -2.2379728   -2.9561281   -0.6256051 
C     0.9749074   -3.9383028   -1.4130699 
C    -0.2495465   -3.3498004   -1.9857984 
C     2.1149850   -3.1508968    0.4699765 
C     1.9516852   -3.0360475   -1.0220033 
C     2.3926524   -1.9680659    1.1951091 
C     0.2178950   -2.2398043    2.3281502 
C     1.4724876   -1.4861977    2.2054610 
C    -2.1566675   -1.8241218    1.5927175 
C    -1.0190552   -1.4503506    2.4291801 
C    -2.9454918   -0.7959274    1.0101045 
C    -2.4770704   -1.7121649   -1.2417325 
C    -3.1154967   -0.7376655   -0.4251048 
C    -0.2747242   -1.9699572   -2.4098650 
C    -1.5300246   -1.2450470   -2.2490156 
C     2.0647612   -1.7410869   -1.6355553 
C     0.9520077   -1.1861039   -2.4112706 
C     3.1703497   -1.0343380    0.4628926 
C     2.9510530   -0.8754310   -0.9923637 
C     3.3837745    0.2370142    0.9708895 
C     1.5231227   -0.0651704    2.5455911 
C     2.5420594    0.7782009    1.9823970 
C    -0.9318756   -0.0920943    2.8051218 
C     0.3198268    0.5962048    2.9049356 
C    -2.9041670    0.5545179    1.4882547 
C    -1.9359497    0.8946962    2.4318385 
C    -3.2017945    0.6375865   -0.8165872 
C    -3.1904481    1.4616452    0.3798232 
C    -1.5488862    0.1297315   -2.5555733 
C    -2.4878358    1.0624547   -1.9463415 
C     0.9162129    0.2504919   -2.6281002 
C    -0.3528394    0.8561320   -2.8555010 
C     3.0045556    0.5305843   -1.2911614 
C     3.4664845    1.2007130   -0.1238464 
C     1.9884841    1.1255467   -2.1217444 
C     2.2885340    2.1661283    1.6214916 
C     2.8938479    2.3997781    0.3001716 
C     0.0928967    2.0080139    2.6294558 
C    -1.3116596    2.1925296    2.3763215 
C     1.0717373    2.8223639    1.9541429 
C    -2.6471413    2.7316221    0.3490590 
C    -1.7439870    3.1597755    1.4328459 
C    -1.9280769    2.3848816   -1.9951055 
C    -0.6065391    2.2660576   -2.6055111 
C    -2.1214830    3.2765460   -0.9066043 
C     1.7224250    2.5039614   -1.8884500 
C     2.2030086    3.1652891   -0.6616736 
C     0.4335958    3.1095007   -2.2053034 
C     0.6007185    3.8890398    1.0878470 
C    -0.8033643    4.0548032    0.8848021 
C    -1.0680938    4.1678554   -0.5646820 
C     1.2076857    4.0497203   -0.2192506 
C     0.1619777    4.1313287   -1.2291544 
