60 

C    -0.2491215    4.9757079   -0.1763962 
C    -1.4193574    4.3357707    0.3303836 
C    -1.1307275    3.7995660    1.6155138 
C     0.8464147    4.6613641    0.7561796 
C     0.3012904    3.9820833    1.8875689 
C     1.8682395    4.0109835    0.0310746 
C     0.0567286    4.3320069   -1.4225319 
C     1.3805735    3.8321385   -1.3826120 
C    -1.9260711    3.3899560   -0.6516105 
C    -0.9854788    3.3801631   -1.7590210 
C    -2.5401157    2.1744204   -0.2366718 
C    -1.5078640    2.4731263    1.9737234 
C    -2.3515328    1.6808355    1.1426258 
C     0.7983666    2.7158158    2.2967026 
C    -0.3400777    1.8358742    2.5488475 
C     2.3883403    2.7653796    0.4447609 
C     1.9078703    2.0892188    1.6317465 
C     1.6881245    2.5260789   -1.7974391 
C     2.5045780    1.9299353   -0.7494592 
C    -0.6588700    2.1368325   -2.3867457 
C     0.7192334    1.6561189   -2.4305110 
C    -2.6057618    1.1688562   -1.2222569 
C    -1.6470670    1.1347620   -2.2881547 
C    -2.9901912   -0.1847348   -0.9162073 
C    -2.4172899    0.2657845    1.4128264 
C    -3.0521893   -0.6341892    0.4370512 
C    -0.2281921    0.4520424    2.5924077 
C    -1.4221584   -0.3181348    2.2881207 
C     2.0366890    0.6531758    1.6969114 
C     1.0733258   -0.1715902    2.3764883 
C     2.7069230    0.5785571   -0.6819552 
C     2.7974023   -0.0286164    0.6494117 
C     0.9887707    0.2397661   -2.4486929 
C     2.1735395   -0.2535712   -1.7633693 
C    -1.3929171   -0.2470613   -2.5806595 
C    -2.4249812   -1.0398581   -1.9215212 
C    -0.0808938   -0.7492301   -2.6818234 
C    -2.2255269   -2.3878450   -1.6662752 
C    -2.9954959   -2.0402847    0.6361477 
C    -2.7324082   -2.9202089   -0.4494509 
C    -1.3082968   -1.7318623    2.3957613 
C    -2.2195578   -2.5767111    1.7489015 
C     1.1850971   -1.6278089    2.3426791 
C    -0.0017227   -2.4033181    2.4709939 
C     3.0201262   -1.3918069    0.7177757 
C     2.2954803   -2.2297374    1.6613528 
C     2.4287347   -1.6230698   -1.6771769 
C     3.1646291   -2.1430340   -0.5188832 
C     0.1414675   -2.1925834   -2.4309969 
C    -0.9409981   -3.0100834   -1.9734055 
C     1.4590517   -2.6236605   -2.0754948 
C    -1.7906384   -3.9584789   -0.0101371 
C    -1.5159059   -3.7784141    1.3503314 
C    -0.1446119   -3.6849003    1.8069772 
C    -0.7219650   -4.0433508   -0.9660424 
C     2.1632144   -3.5184260    1.0459920 
C     2.7431364   -3.4482387   -0.2836721 
C     1.6684103   -3.7579487   -1.2138907 
C     0.8834652   -4.1478462    0.9643078 
C     0.5787633   -4.3097161   -0.4905006 
