60 

C     0.7255277   -4.5171259    0.2879128 
C     0.3202637   -3.9930929    1.6060061 
C    -1.0618611   -3.7647591    1.5513192 
C    -0.3553562   -4.3529636   -0.6339981 
C    -1.4844783   -3.9990238    0.1325740 
C     0.1003605   -3.4599911   -1.7150014 
C     1.8419598   -3.7869588   -0.1598293 
C     1.5262038   -3.2525620   -1.4757028 
C     1.1934941   -2.9141351    1.9273643 
C     2.2261800   -2.8526862    0.8643004 
C     0.6750698   -1.6752467    2.4154132 
C    -1.6047532   -2.5273846    1.9473685 
C    -0.7788658   -1.4824184    2.4740763 
C    -2.2867144   -2.9274254   -0.2574029 
C    -2.5682759   -2.1214236    0.9261124 
C    -0.6853450   -2.3566372   -2.1321629 
C    -2.0034596   -2.2079598   -1.4905640 
C    -0.0309689   -1.1047704   -2.6214767 
C     2.1066835   -2.0649392   -1.8303229 
C     1.3724147   -1.0391979   -2.5382772 
C     2.8372872   -1.6350867    0.5102784 
C     2.9758139   -1.3650313   -0.8977436 
C     1.5415307   -0.5010333    2.3219400 
C     2.6837747   -0.4886053    1.4056783 
C     0.9908164    0.7431573    2.6970184 
C    -1.3345101   -0.1347760    2.4809148 
C    -0.4441990    0.9209632    2.7771181 
C    -3.0648057   -0.8307699    0.8263357 
C    -2.5769802    0.1888344    1.7611944 
C    -2.6647633   -1.0037404   -1.6212563 
C    -3.4362884   -0.4356306   -0.5147928 
C    -0.7407957    0.1790994   -2.6899904 
C    -2.1357024    0.1331344   -2.3906398 
C    -0.0531403    1.4691039   -2.5527120 
C     2.0555530    0.2147964   -2.3461210 
C     3.0936151   -0.0327622   -1.3563701 
C     1.4028203    1.4713798   -2.4073406 
C     3.2064506    0.7521151    0.9830048 
C     3.4539767    0.9728243   -0.4542249 
C     1.5889321    2.0103692    2.3267126 
C     2.7321443    2.0124138    1.5056993 
C    -0.7257895    2.2937308    2.4245002 
C     0.5232614    2.9769401    2.1246719 
C    -2.8593703    1.5477479    1.4547109 
C    -1.8973146    2.5896557    1.7388557 
C    -3.6569695    0.9071101   -0.8048570 
C    -2.8373846    1.2746964   -1.9856131 
C    -3.4564249    1.8843507    0.1714603 
C    -0.7977922    2.6339696   -2.0298991 
C    -1.8020417    3.4608030    0.5511410 
C    -2.1807906    2.4982456   -1.7176697 
C    -2.6854097    2.9514643   -0.4212091 
C     0.5866448    3.8652421    1.0249943 
C    -0.0861415    3.6050260   -1.2303064 
C    -0.5601050    3.9249869    0.1313887 
C     2.0831253    2.5682954   -1.7479708 
C     3.1327862    2.2924437   -0.7880425 
C     2.8135856    3.0016302    0.4521390 
C     1.3124297    3.6247247   -1.1919323 
C     1.7540922    3.8588830    0.2012254 
