60 

C     1.5150869   -3.4793016   -1.2097984 
C     0.2382373   -3.5893540   -1.6941319 
C    -0.6674330   -3.9448574   -0.5856425 
C     1.4813420   -3.7344977    0.2485391 
C     0.1011917   -3.9552254    0.6322793 
C     2.2564091   -2.7469610    0.8421317 
C     2.3125864   -2.3133497   -1.4787903 
C     2.8920623   -1.9289199   -0.2340920 
C     1.8463033   -1.3085466   -2.3949298 
C    -0.3469337   -2.5184292   -2.4648718 
C     0.4658872   -1.4057436   -2.8906064 
C    -1.8079007   -3.1457341   -0.7193185 
C    -1.6497624   -2.3074782   -1.9347291 
C    -2.4460393   -2.5780867    0.4373244 
C    -0.4069844   -3.2534293    1.7387689 
C    -1.7271939   -2.6598043    1.6817398 
C     1.7881664   -2.0703587    2.0356796 
C     0.4501682   -2.3398573    2.4744095 
C     2.3169627   -0.7959325    2.3096069 
C     3.3240866   -0.6064583    0.0072840 
C     3.2191773   -0.1091211    1.3504806 
C     2.4099928   -0.0063534   -2.2238938 
C     3.1916795    0.3395750   -1.0707416 
C     1.7252884    1.1943207   -2.6670951 
C    -0.2341093   -0.1965152   -3.1674801 
C     0.4176656    1.1009012   -3.1291441 
C    -2.2938154   -1.0344851   -2.0426989 
C    -1.5927599   -0.0002378   -2.7638947 
C    -3.2788307   -1.4366641    0.2198305 
C    -3.1953116   -0.6537994   -1.0289176 
C    -3.4693360   -0.4981797    1.2500434 
C    -1.7211167   -1.5131327    2.5720969 
C    -0.3704254   -1.2607522    2.9825546 
C    -2.5775591   -0.4372469    2.3564180 
C     1.5259237    0.2241796    2.9318179 
C     0.1251813    0.0751863    3.1085842 
C     3.1419726    1.2711481    1.5750520 
C     2.0587975    1.4860060    2.5035810 
C     3.0339686    1.7667474   -0.8141111 
C     2.1193228    2.3002241   -1.8098656 
C     2.9739963    2.2230566    0.5062628 
C     1.1985515    3.2939658   -1.4815099 
C    -0.5586032    2.1023652   -2.7624325 
C    -1.7979461    1.4066603   -2.4761090 
C    -0.1672001    3.2118958   -1.9972754 
C    -3.3862338    0.7573751   -0.7202664 
C    -3.5652001    0.8344012    0.6759107 
C    -2.6433142    1.7968820   -1.3958279 
C    -2.0933597    0.9465967    2.4721423 
C    -0.7489076    1.2299706    2.7893181 
C    -2.8131291    1.7419291    1.4731819 
C     1.2665461    2.5707379    2.0946247 
C     1.9040266    3.1341969    0.8922763 
C     1.1033037    3.7277801   -0.0800060 
C    -0.1650453    2.4847079    2.2377531 
C    -1.0510317    3.6537741   -0.9624889 
C    -2.2224146    2.9275232   -0.6015144 
C    -2.2086348    2.8218694    0.8517848 
C    -0.2740434    3.9199473    0.2180068 
C    -0.9233096    3.2848897    1.3326995 
