60 

C     0.4224050   -4.0135893   -0.7458420 
C    -0.8611496   -3.7635712   -1.1975034 
C    -1.7504095   -3.6246630   -0.0239068 
C     0.4076684   -3.9795269    0.7274564 
C    -0.9253345   -3.6917359    1.1544781 
C     1.5083940   -3.1972144    1.1437936 
C     1.5126068   -3.2297009   -1.2166086 
C     2.3146236   -2.9205215   -0.0409912 
C     1.2857708   -2.1949894   -2.2033997 
C    -1.1346318   -2.6931326   -2.1062464 
C    -0.0780901   -1.8530292   -2.5960231 
C    -2.6180925   -2.5511334   -0.2491559 
C    -2.3611115   -2.0908555   -1.6217837 
C    -2.8892068   -1.5613367    0.7775029 
C    -1.1061293   -2.7045585    2.1323471 
C    -2.1651240   -1.7186617    1.9964626 
C     1.3534461   -2.1664057    2.1463933 
C     0.0451013   -2.0199942    2.6944563 
C     2.2214100   -0.9672954    2.0810631 
C     3.1558046   -1.8280474   -0.0578939 
C     3.1493771   -0.8464352    1.0226214 
C     2.2617802   -1.1534867   -2.2497092 
C     3.2799252   -1.1032905   -1.2764214 
C     1.9327591    0.2413549   -2.6074369 
C    -0.4054381   -0.4490280   -2.9335258 
C     0.6137821    0.6286514   -2.8846821 
C    -2.6815556   -0.8208885   -1.9842301 
C    -1.7519906   -0.0451462   -2.7880645 
C    -3.2984065   -0.2122720    0.3654995 
C    -3.3319413    0.0877467   -1.0372240 
C    -3.0292098    0.9073898    1.2302122 
C    -1.7791691   -0.5527441    2.7609252 
C    -0.4094247   -0.7304352    3.1705279 
C    -2.2331102    0.7195805    2.4088270 
C     1.7635778    0.2742192    2.6633241 
C     0.4516688    0.3659142    3.2219914 
C     2.1097908    1.5788285    2.1289013 
C     3.4611748    0.4654666    0.4406706 
C     3.5486241    0.2832041   -0.9560912 
C     2.8274425    1.1159116   -1.8556049 
C     2.9050300    1.6894840    0.9508982 
C     2.4093735    2.3585093   -1.4075250 
C     2.5634141    2.7149217   -0.0017512 
C     0.2366482    2.0442754   -2.5767529 
C     1.1573989    2.8906836   -1.8843768 
C    -2.0897060    1.3229894   -2.5461345 
C    -3.0899500    1.3970204   -1.5061317 
C    -1.1491843    2.3551134   -2.3828095 
C    -2.7405830    2.2463051    0.7221065 
C    -2.7421883    2.4891568   -0.6564516 
C    -1.6157494    3.1877232   -1.2642389 
C    -1.3807254    1.8887113    2.5954685 
C    -0.0555862    1.7128913    2.9895374 
C     0.9983604    2.4841237    2.3722194 
C    -1.7109479    2.8481985    1.5597723 
C     1.5162031    3.6354361    0.2910817 
C     0.6831671    3.7957996   -0.8688290 
C    -0.6772051    3.8262553   -0.4599968 
C     0.6757404    3.4838185    1.4396535 
C    -0.7111181    3.6440052    0.9991514 
