60 

C    -0.6925107   -4.6229172    0.0215302 
C     0.7398976   -4.4022411   -0.0642322 
C     1.1697523   -3.9041676    1.1810135 
C    -1.1490579   -4.0142084    1.2743808 
C    -0.0410332   -3.6452481    2.0248331 
C    -2.1198184   -2.9701634    0.9937492 
C    -1.2629111   -3.8358270   -0.9887761 
C    -2.2459442   -2.9085334   -0.4429182 
C     1.0317502   -3.5873097   -1.2319639 
C    -0.2459501   -3.2746251   -1.8567836 
C     2.0398392   -2.5781866   -1.1870115 
C     2.0074630   -2.7788923    1.2848741 
C     2.5996508   -2.1907856    0.1169111 
C     0.0920999   -2.3367048    2.5880190 
C     1.4210219   -1.8774819    2.2750121 
C    -2.1279222   -1.7475886    1.7380305 
C    -0.9744677   -1.3809437    2.5658830 
C    -2.8383964   -0.6891472    1.1226191 
C    -2.5297905   -1.6957013   -1.1095087 
C    -3.0953398   -0.6830472   -0.2854684 
C    -0.4750168   -2.0422907   -2.5107263 
C    -1.7158482   -1.2833844   -2.2554484 
C     1.9332914   -1.5439571   -2.1659101 
C     0.6927258   -1.2989873   -2.8603858 
C     2.6148318   -0.2753676   -2.0388940 
C     3.0914298   -0.8732837    0.2802642 
C     3.2246770    0.0522754   -0.8254522 
C     1.7496519   -0.5135540    2.3362148 
C     2.7814755   -0.0802697    1.4474542 
C    -0.6528372    0.0226959    2.7724494 
C     0.7418986    0.4298103    2.7935656 
C    -2.7096939    0.6771413    1.5642433 
C    -1.6598578    1.0501312    2.4575191 
C    -3.1668491    0.6932477   -0.7007052 
C    -3.0842264    1.5409925    0.4666198 
C    -1.7467986    0.0840288   -2.6134235 
C    -2.5241713    1.0699362   -1.8779354 
C     0.6377428    0.0958351   -3.2034951 
C     1.8466266    0.7407766   -2.7333890 
C    -0.5771748    0.7757443   -3.1265569 
C     1.7999992    2.0512687   -2.2579265 
C     3.1570910    1.4103913   -0.3169102 
C     2.9165690    1.3107119    1.1125122 
C     2.5036927    2.4133166   -1.0370087 
C     1.0720305    1.8192610    2.6726796 
C     2.1422944    2.2544052    1.7641926 
C    -1.2959455    2.4404185    2.4592103 
C     0.0765580    2.8075342    2.6624513 
C    -2.5489832    2.8313228    0.3691432 
C    -1.8158103    3.3384779    1.4625884 
C    -1.8451325    2.3586333   -1.9492281 
C    -0.6180200    2.1588429   -2.6957017 
C     0.5592517    2.8055311   -2.2804009 
C    -1.8824980    3.2479226   -0.8768036 
C     1.7417263    3.4503531   -0.3532736 
C     1.6608210    3.4384352    1.0539384 
C     0.4419467    3.8385832    1.6921808 
C    -0.6987362    4.1205136    0.9346254 
C     0.5385321    3.7099614   -1.1436902 
C    -0.6855968    3.9963147   -0.4987800 
