60 

C    -0.7609831   -5.1786233   -0.1928277 
C     0.4489319   -4.9537410   -0.8339788 
C     1.4376328   -4.4443798    0.0801922 
C    -0.5816200   -4.6843045    1.1840056 
C     0.7708253   -4.1364914    1.3308274 
C    -1.6216342   -3.7958886    1.4486537 
C    -1.7274838   -4.2739359   -0.8349013 
C    -2.4043664   -3.5984438    0.1759002 
C     0.2982068   -3.9287364   -1.8929912 
C    -1.0494797   -3.4565171   -1.8762429 
C     2.1284485   -3.3982049   -0.6045450 
C     1.3714462   -3.0115917   -1.8188950 
C     2.6418995   -2.3794584    0.1504686 
C     0.9855597   -2.8369585    1.9422816 
C     2.1242358   -2.1112838    1.4879256 
C    -1.4293763   -2.5012861    2.0119071 
C    -0.1373695   -1.9641175    2.3358837 
C    -2.6698878   -2.2276259    0.0572338 
C    -2.3146553   -1.6000152    1.3174786 
C    -1.2803914   -2.0506529   -1.9739365 
C    -2.3157788   -1.4796916   -1.1229684 
C     1.1699397   -1.6242445   -2.0940592 
C    -0.1729145   -1.1251143   -2.2854565 
C     2.8997008   -1.1079827   -0.4620318 
C     2.1489363   -0.6742002   -1.5877386 
C     2.3087832   -0.7171408    1.7284971 
C     3.0886145   -0.1905577    0.6195716 
C     0.0009226   -0.4964834    2.4163792 
C     1.2978002    0.1429635    2.2605953 
C    -2.2016970   -0.2310822    1.3984739 
C    -1.1301854    0.3845280    2.1421793 
C    -2.4473936   -0.0862011   -1.0224286 
C    -2.7422546    0.4850715    0.2713937 
C    -0.3974022    0.3148243   -2.2853623 
C    -1.7090805    0.8032509   -1.9178438 
C     1.9672473    0.7579105   -1.7713353 
C     0.7015381    1.2901914   -2.2264077 
C     3.1329880    1.1313913    0.3670261 
C     2.8003451    1.6167270   -0.9765072 
C     1.4420895    1.5997402    2.0918585 
C     2.5641157    2.0647892    1.3066701 
C    -1.0269650    1.8363591    2.0957399 
C     0.2786506    2.4887765    2.1701828 
C    -2.8408546    1.8477081    0.4045354 
C    -2.1161509    2.5427627    1.4461385 
C    -1.9669081    2.1769485   -1.8288156 
C    -2.8501395    2.6764726   -0.7797977 
C     0.4259906    2.7445665   -2.1089256 
C    -0.9405213    3.1824036   -2.0216113 
C     2.5259493    2.9767308   -0.8458319 
C     2.5156717    3.3000746    0.6068099 
C     1.4163299    3.6068691   -1.4602761 
C     0.3819743    3.8505572    1.6615709 
C     1.4950559    4.1895299    0.8119126 
C     0.9682213    4.6221224   -0.5121108 
C    -1.9922751    3.9000412    0.9728015 
C    -2.4696514    3.9723007   -0.4279150 
C    -1.3337885    4.3484453   -1.2285262 
C    -0.7446699    4.5011409    1.0500014 
C    -0.3621726    4.9097580   -0.3508278 
