60 

C    -1.1770263   -4.7800949    0.5942877 
C    -0.3715549   -4.9207193   -0.5532127 
C     0.9489232   -4.4846889   -0.2468339 
C    -0.3504206   -4.0868251    1.6066332 
C     0.9823718   -3.9541899    1.1160083 
C    -1.0100175   -2.9110954    2.0885077 
C    -2.1939541   -3.8301206    0.2760032 
C    -2.2746688   -2.8581642    1.3367829 
C    -0.8563727   -3.9667988   -1.5762773 
C    -2.0408159   -3.3310702   -1.0896723 
C     1.4037212   -3.6269248   -1.3118520 
C     0.2134436   -3.1636613   -2.0652436 
C     2.3651657   -2.7222297   -1.0091751 
C     1.7328730   -2.7751150    1.3981461 
C     2.7170045   -2.4554200    0.3996377 
C    -0.3126437   -1.6872420    2.3670565 
C     1.1248072   -1.6417617    2.1209509 
C    -1.0782568   -0.4213164    2.3481945 
C    -2.7894189   -1.6414410    1.0234365 
C    -2.3589167   -0.4543855    1.7398642 
C    -2.2591325   -1.9533773   -1.3651329 
C    -2.9868658   -1.2427269   -0.3607603 
C     0.0577336   -1.7593086   -2.3244585 
C    -1.2513585   -1.1578612   -2.1048636 
C     2.4392243   -1.4446110   -1.7207286 
C     1.2475660   -0.8809331   -2.2785306 
C     3.3123114   -1.2099405    0.4019701 
C     3.2905812   -0.6246470   -0.9674797 
C     1.7628988   -0.3351807    2.0923524 
C     2.9514270   -0.1835284    1.2956461 
C    -0.4318076    0.8901515    2.4286538 
C     1.0180431    0.9018633    2.3925605 
C    -1.1819032    2.1105738    2.0827885 
C    -2.7955967    0.6632397    0.9811070 
C    -3.0166758    0.1555812   -0.3675175 
C    -2.3467325    1.9651097    1.2140627 
C    -1.3756206    0.2753705   -2.1642591 
C    -2.4657289    0.9091971   -1.4309954 
C     1.1143786    0.5652008   -2.2642813 
C    -0.2142587    1.1346137   -2.4353503 
C     3.1280336    0.7509169   -0.8667400 
C     3.1755253    1.0584507    0.5681491 
C     2.1229998    1.4158876   -1.6302794 
C     1.6512733    2.1542881    2.0942073 
C     2.6383441    2.2101773    1.0175173 
C    -0.4977969    3.3713312    1.9669382 
C     0.9179175    3.3445007    1.9710777 
C    -0.8908781    4.3687435    0.9842575 
C    -2.5703215    2.8609603    0.1157207 
C    -2.4983602    2.2951509   -1.2173862 
C    -1.9143853    4.1435623    0.0579145 
C    -0.3519213    2.5417947   -2.3526675 
C    -1.6142429    3.1521436   -1.9652872 
C    -1.4011992    4.3694151   -1.2919777 
C     1.8392631    2.8013516   -1.2428128 
C     2.2592612    3.2523037    0.0741219 
C     1.4103676    4.1249681    0.8023080 
C     0.3291218    4.7672023    0.2170618 
C     0.6925463    3.4187490   -1.8124842 
C     0.0317249    4.5325805   -1.1576651 
