60 

C     4.6550222    0.3653164    1.0639250 
C     4.4695297    1.2392510   -0.0971854 
C     4.3489939    0.4287002   -1.2596533 
C     4.5304319   -0.9829365    0.6445871 
C     4.3534481   -0.9518211   -0.7869614 
C     3.4691004   -1.5829233    1.4364910 
C     3.5863675    0.6488739    1.9756290 
C     2.8429722   -0.5460285    2.2644960 
C     3.4377195    2.1769512    0.2070719 
C     2.8676319    1.8037930    1.5403175 
C     2.5421275    2.5264391   -0.8079632 
C     3.2150729    0.5750570   -2.1311136 
C     2.4051918    1.7073457   -2.0056379 
C     3.2709195   -1.6349650   -1.4182604 
C     2.5297894   -0.7059094   -2.2717446 
C     2.6076998   -2.4801149    0.8289905 
C     2.5259628   -2.5427704   -0.6585430 
C     1.2793891   -2.6372523    1.3208251 
C     1.4262750   -0.4915072    2.4586995 
C     0.6283100   -1.6681406    2.1505254 
C     1.4915280    1.9049566    1.7847881 
C     0.7397549    0.7856530    2.3862370 
C     1.2357988    2.9728271   -0.4465862 
C     0.7569889    2.7972094    0.8915170 
C     0.9946307    1.6447490   -2.3040149 
C     0.3233349    2.6403355   -1.4994836 
C     1.1136284   -0.8000277   -2.4298497 
C     0.3069693    0.4249161   -2.5475318 
C     1.1828910   -2.8039082   -1.0094453 
C     0.5166593   -3.1834054    0.2217101 
C     0.4362289   -1.9857836   -1.9214313 
C    -0.8193991   -3.2454755    0.2816559 
C    -0.8342874   -1.6208805    2.1518168 
C    -1.5206982   -2.6636051    1.4286488 
C    -0.7111350    0.8305847    2.4233772 
C    -1.5527335   -0.3784063    2.3669677 
C    -0.6051490    2.9234230    1.0746260 
C    -1.3271000    2.0697056    2.0328137 
C    -1.0614842    2.6519459   -1.3144454 
C    -1.4943328    3.1595032   -0.0332345 
C    -1.1534057    0.4012604   -2.4004461 
C    -1.8553851    1.6186810   -1.9637950 
C    -1.0135059   -2.0418380   -1.8718113 
C    -1.5978057   -2.9515241   -0.9100028 
C    -1.8300295   -0.8897977   -2.2671091 
C    -2.8461394   -2.5295511    1.0318001 
C    -2.9157498   -2.8027048   -0.4477387 
C    -3.0018422   -0.2793343    2.0045020 
C    -3.6313919   -1.3936739    1.3172099 
C    -2.6821926    2.1452358    1.7187513 
C    -2.7956160    2.8804159    0.4262478 
C    -3.5476590    1.0194748    1.6818100 
C    -3.2441941    1.5468825   -1.5868136 
C    -3.7016507    2.2229475   -0.3631940 
C    -4.3523310    1.1994013    0.4786509 
C    -3.2438380   -0.9011507   -1.9432664 
C    -3.7729788   -1.8897998   -1.0022790 
C    -4.4153828   -1.1640500    0.0992355 
C    -3.9119931    0.3119829   -1.6449982 
C    -4.6509575    0.1254676   -0.3493840 
