60 

C     1.5106469   -3.9171590    1.2628563 
C     0.0801296   -4.0547236    1.2350434 
C    -0.3376704   -3.9470630   -0.1189474 
C     1.9915604   -3.6661594   -0.0741542 
C     0.8766860   -3.6746721   -0.9420363 
C     2.8447852   -2.4945190   -0.0312403 
C     1.8286738   -2.7823224    2.0373565 
C     2.7147662   -1.9048828    1.2997535 
C    -0.4737454   -3.1199122    2.1864962 
C     0.6250275   -2.2683670    2.6597544 
C    -1.6853162   -2.5145770    1.9025708 
C    -1.5823980   -3.3225540   -0.4547961 
C    -2.3381466   -2.7127255    0.6129849 
C    -1.6961869   -2.7096420   -1.7527085 
C     0.7990734   -2.7240675   -2.0284785 
C    -0.4737237   -2.3289949   -2.4913007 
C     2.8517058   -1.6232080   -1.1054751 
C     1.8556672   -1.7500014   -2.1640147 
C     3.0997685   -0.2253930   -0.8953800 
C     2.6258510   -0.5162052    1.4824179 
C     3.0378934    0.3739400    0.3875868 
C     0.4701254   -0.8844458    2.8185637 
C     1.6009076   -0.0138501    2.4169690 
C    -1.9330173   -1.1596199    2.3243912 
C    -0.8874629   -0.3185938    2.7996772 
C    -3.1854400   -1.5667510    0.3802214 
C    -2.9719287   -0.6259892    1.4687084 
C    -2.6451484   -1.7018552   -1.9788852 
C    -3.3509531   -1.0631815   -0.9212795 
C    -0.6913787   -1.0188845   -3.0684136 
C    -2.0284675   -0.6520933   -2.7869607 
C     1.6165998   -0.4402410   -2.6963889 
C     2.5143409    0.4749370   -2.0223992 
C     0.3083404   -0.0031103   -3.0624471 
C     2.2412874    1.8074673   -1.9506779 
C     2.8135663    1.8117739    0.4682633 
C     2.5997604    2.5583811   -0.7541427 
C     1.4208657    1.3572539    2.4807292 
C     2.1748014    2.3107905    1.6528790 
C    -1.0627494    1.1142569    2.6972139 
C     0.1063207    1.9491926    2.7699927 
C    -3.0502927    0.7393889    1.2564282 
C    -2.1721927    1.6332411    1.9580123 
C    -3.2712990    0.3838165   -1.1601462 
C    -2.3755122    0.6175126   -2.2949950 
C    -3.2059477    1.2585271   -0.0961408 
C    -0.0851103    1.3927835   -2.7946487 
C     0.9602463    2.3152636   -2.4533067 
C    -1.4249265    1.6929412   -2.3015458 
C     1.7732701    3.7122951   -0.7610179 
C     0.7014443    3.4999930   -1.7514659 
C     1.4191947    3.5106974    1.6244464 
C     0.1137105    3.2486225    2.2595510 
C     1.1800018    4.1932085    0.4151032 
C    -2.0025400    2.8196585    1.1381207 
C    -2.4550990    2.4907799   -0.1948775 
C    -1.6165734    2.7756077   -1.3221853 
C    -0.5602559    3.7300162   -1.1074696 
C    -0.9131553    3.6848368    1.3418749 
C    -0.2803808    4.2485812    0.1999595 
