60 

C     0.0357555    4.0339694   -1.1561181 
C     1.2658243    3.8716967   -0.5537790 
C     1.0928762    3.8112962    0.9179152 
C    -0.9505668    4.1148551   -0.0627650 
C    -0.2971526    3.7902047    1.2013604 
C    -2.0775092    3.4323281   -0.4519266 
C    -0.4571983    3.0386688   -2.1083040 
C    -1.8522850    2.8553901   -1.7907898 
C     0.3431248    1.9203803   -2.4720343 
C     2.1453515    2.8298320   -0.9402263 
C     1.7314353    1.9164456   -1.9882275 
C     1.9838252    2.8287272    1.3971825 
C     2.7320085    2.2753404    0.2604855 
C     1.5210048    1.9338083    2.3640227 
C    -0.8434212    2.7374566    2.0336621 
C     0.1126996    1.9101053    2.6982058 
C    -2.7077784    2.4430413    0.3704338 
C    -2.1284461    2.0907221    1.6450061 
C    -2.4332570    1.6066412   -1.8069061 
C    -3.1349816    1.4016970   -0.5114816 
C    -0.3143343    0.6081752   -2.7031746 
C    -1.7390300    0.4962211   -2.4027727 
C     0.4586760   -0.6212167   -2.7565563 
C     2.4524717    0.7285716   -2.0420526 
C     1.8814895   -0.5131538   -2.5843619 
C     3.2610982    0.9709056    0.2895663 
C     3.3775768    0.3481495   -0.9996556 
C     2.0344439    0.5787312    2.4062851 
C     2.9827653    0.1049835    1.4547765 
C    -0.1837683    0.5420935    3.0800189 
C     0.9936490   -0.2790081    2.8995937 
C    -2.4071790    0.7738960    2.0956995 
C    -1.4304402    0.0009355    2.8410856 
C    -3.4172978    0.1050129   -0.0675633 
C    -3.1472713   -0.1865141    1.3068903 
C    -2.2966110   -0.7664822   -2.1513799 
C    -3.2612444   -0.9565145   -1.0344725 
C    -0.1506193   -1.9386367   -2.4883819 
C    -1.5634406   -1.9819552   -2.3233183 
C     0.6431286   -2.9923859   -1.8085183 
C     2.6613835   -1.5895176   -2.1341617 
C     3.5611765   -1.0498086   -1.1037240 
C     2.0347732   -2.7612730   -1.6000740 
C     3.0390493   -1.3150692    1.2872581 
C     3.4672483   -1.8649679    0.0237116 
C     2.6165267   -2.9939442   -0.3031990 
C     0.8904987   -1.6552041    2.5302378 
C     1.9985152   -2.1763832    1.8002474 
C     1.7801703   -3.2400431    0.8155093 
C    -1.5826811   -1.4084388    2.5333105 
C    -2.7506231   -1.5285126    1.6890587 
C    -0.4424449   -2.2537765    2.3755704 
C    -3.1737823   -2.2756182   -0.6181339 
C    -2.1876360   -2.9593719   -1.4660688 
C    -2.8510057   -2.5889127    0.7695761 
C    -0.0024664   -3.7736994   -0.7827255 
C     0.5082108   -3.7345186    0.5810581 
C    -0.6017057   -3.3682520    1.4628351 
C    -1.4165673   -3.7754182   -0.6649344 
C    -1.8040129   -3.5516851    0.7472241 
