60 

C     0.7039685    0.2484450   -4.1385621 
C     0.6632609    1.5472471   -3.7213254 
C    -0.7422152    1.9090595   -3.4012615 
C    -0.7039685   -0.2484450   -4.1385621 
C    -1.5213275    0.7141389   -3.4368097 
C    -0.6632609   -1.5472471   -3.7213254 
C     1.5213275   -0.7141389   -3.4368097 
C     0.7422152   -1.9090595   -3.4012615 
C     2.2576041   -0.3189588   -2.2526058 
C     1.4906568    2.0262420   -2.6591823 
C     2.2805076    1.1065731   -1.8829986 
C    -0.7192893    2.7645609   -2.3052562 
C     0.6992282    3.0148217   -1.9738172 
C    -1.6663947    2.5837725   -1.2404179 
C    -2.2576041    0.3189588   -2.2526058 
C    -2.4093783    1.3246667   -1.1952862 
C    -1.4906568   -2.0262420   -2.6591823 
C    -2.2805076   -1.1065731   -1.8829986 
C     0.7192893   -2.7645609   -2.3052562 
C    -0.6992282   -3.0148217   -1.9738172 
C     2.4093783   -1.3246667   -1.1952862 
C     1.6663947   -2.5837725   -1.2404179 
C     2.8426497   -0.8909632    0.0995735 
C     2.5522208    1.4957799   -0.4878384 
C     2.8828634    0.4799619    0.4565360 
C     1.0284794    3.4275419   -0.7035923 
C     2.0096342    2.6945718    0.0587896 
C    -1.3420333    3.2607054   -0.0156345 
C    -0.0331624    3.7754300    0.1813773 
C    -1.8072398    2.7902324    1.2823865 
C    -2.8426497    0.8909632    0.0995735 
C    -2.5657944    1.6387119    1.3244764 
C    -2.5522208   -1.4957799   -0.4878384 
C    -2.8828634   -0.4799619    0.4565360 
C    -1.0284794   -3.4275419   -0.7035923 
C    -2.0096342   -2.6945718    0.0587896 
C     1.3420333   -3.2607054   -0.0156345 
C     0.0331624   -3.7754300    0.1813773 
C     2.5657944   -1.6387119    1.3244764 
C     1.8072398   -2.7902324    1.2823865 
C     2.6019495    0.6099211    1.8987273 
C     2.4226253   -0.7007590    2.4285589 
C     1.6186354    2.7867123    1.4715749 
C     0.3853086    3.4875863    1.5300697 
C    -0.7283084    2.9754148    2.2663074 
C     1.8622934    1.7270909    2.3971417 
C    -0.5019755    2.0270918    3.2479283 
C     0.8612486    1.4783424    3.4149644 
C    -2.4226253    0.7007590    2.4285589 
C    -2.6019495   -0.6099211    1.8987273 
C    -1.4461466    0.9330115    3.4307300 
C    -1.6186354   -2.7867123    1.4715749 
C    -0.3853086   -3.4875863    1.5300697 
C     0.7283084   -2.9754148    2.2663074 
C    -1.8622934   -1.7270909    2.3971417 
C     1.4461466   -0.9330115    3.4307300 
C     0.7145334    0.1758692    3.9254463 
C    -0.7145334   -0.1758692    3.9254463 
C     0.5019755   -2.0270918    3.2479283 
C    -0.8612486   -1.4783424    3.4149644 
