60 

C    -4.0403169   -0.5689360   -1.0800952 
C    -3.2870299   -1.7770170   -1.2779078 
C    -2.8873792   -2.3011160    0.0032912 
C    -3.8891103   -0.2294999    0.2841023 
C    -3.2032850   -1.2717077    0.9877389 
C    -3.4047938    1.1290880    0.4180871 
C    -3.3772194    0.4919447   -1.7938898 
C    -3.1243348    1.6050758   -0.9273297 
C    -2.2047534   -1.4984996   -2.1587684 
C    -2.2586958   -0.0582654   -2.4923977 
C    -0.9615949   -2.1919748   -2.0558815 
C    -1.7362652   -3.1100400    0.1258688 
C    -0.8249832   -3.2279735   -1.0204000 
C    -1.1694482   -3.1389680    1.4424461 
C    -2.2495845   -0.9534440    1.9970646 
C    -1.3238181   -1.9757285    2.2974266 
C    -2.5335050    1.4807368    1.4684359 
C    -1.8852058    0.4416736    2.2716917 
C    -1.8589677    2.7395897    1.2716090 
C    -2.0210577    2.4604895   -1.1820763 
C    -1.5887803    3.2430991   -0.0818659 
C    -1.0850620    0.6950841   -2.7109391 
C    -1.0430527    2.0820207   -2.2088377 
C     0.2000589   -1.5051110   -2.5877793 
C     0.1417036   -0.0641021   -2.9211063 
C     1.4793198   -2.0658827   -2.2814413 
C     0.4752285   -3.7753907   -0.7795195 
C     1.5791464   -3.1963127   -1.4499586 
C     0.1436458   -3.6604677    1.6502060 
C     0.9303438   -4.0371408    0.5765179 
C    -0.0017290   -1.6648675    2.8017260 
C     0.8911843   -2.7040770    2.4723752 
C    -0.5698475    0.7301611    2.8122483 
C     0.4479198   -0.3195555    2.8553677 
C    -0.8070438    3.1147538    2.1037009 
C    -0.0916931    2.0881554    2.8106962 
C    -0.3072023    3.9033319   -0.0526836 
C     0.1517457    3.9002747    1.3168217 
C     0.2044151    2.7516897   -2.1807561 
C     0.6075560    3.6377900   -1.0784769 
C     1.3540163    0.6696468   -2.9130893 
C     1.3603425    2.0580656   -2.6265241 
C     2.6051739   -1.1915610   -1.9515919 
C     2.5498718    0.1248584   -2.2761861 
C     2.6672606   -2.9385641   -0.4698679 
C     2.2548284   -3.3973124    0.7630296 
C     2.1444925   -2.4427935    1.8430028 
C     3.1576541   -1.6245679   -0.6729071 
C     1.8041875   -0.0581070    2.3929691 
C     2.5551346   -1.0755965    1.6625268 
C     3.1855800   -0.6693224    0.4013816 
C     1.2914647    2.3356000    2.5895544 
C     1.4246809    3.4410061    1.6287824 
C     2.1590156    1.3035091    2.1746332 
C     1.9902623    3.2882026   -0.7385072 
C     2.4419019    2.3398552   -1.7039611 
C     3.0744875    1.1232563   -1.3615336 
C     3.2434495    0.7482080    0.0255124 
C     2.3443978    3.0411759    0.6062915 
C     2.8752894    1.7255607    0.9811730 
