60 

C     3.7039846   -1.7923923    0.8857483 
C     3.0720043   -2.6964418    0.0407863 
C     2.7454407   -2.0050594   -1.2208340 
C     3.8179587   -0.5202371    0.2202108 
C     3.2508493   -0.6494063   -1.0990651 
C     3.2359415    0.4675272    1.0503940 
C     2.8172363   -1.6001506    2.0375638 
C     2.5545733   -0.2152139    2.1617185 
C     1.9939865   -3.3359299    0.7845125 
C     1.7517629   -2.5427242    2.0022314 
C     0.9331558   -3.8034730    0.0764448 
C     1.5132587   -2.2665094   -1.8488655 
C     0.7716771   -3.4101739   -1.3446457 
C     0.7586314   -1.1561794   -2.4485606 
C     2.5661560    0.4359302   -1.6739139 
C     1.3770138    0.1591392   -2.4653738 
C     2.7041699    1.6485856    0.4876524 
C     2.6115949    1.7187572   -0.9558917 
C     1.8105462    2.4277588    1.3307032 
C     1.2716688    0.2399468    2.5385092 
C     1.0127005    1.6689918    2.3077585 
C     0.4182174   -2.1437260    2.3147879 
C     0.1972413   -0.7379665    2.6723194 
C    -0.3909888   -3.8683141    0.6772113 
C    -0.6909658   -2.9595698    1.7662483 
C    -0.5718666   -3.5403926   -1.6188643 
C    -1.2958551   -4.0216618   -0.4133085 
C    -0.6899775   -1.2325052   -2.5429410 
C    -1.3416606   -2.4692248   -2.2092189 
C    -1.5047487   -0.0158966   -2.4203102 
C     0.5511417    1.2621264   -2.8226012 
C    -0.8761956    1.2016362   -2.6918135 
C     1.9079267    2.8200406   -1.5047764 
C     0.9316133    2.5960499   -2.5283555 
C     1.2782444    3.6330861    0.7562698 
C     1.3738876    3.8164251   -0.6480885 
C    -0.0400533    4.1090191    1.1225554 
C    -0.3033845    2.1360093    2.5709468 
C    -0.7986466    3.3636289    1.9827693 
C    -1.1552448   -0.2220547    2.5990520 
C    -1.3672754    1.1881529    2.5224656 
C    -2.0189833   -2.4115515    1.7751041 
C    -2.2082173   -1.0229117    2.1226143 
C    -2.5403656   -3.4093918   -0.4127754 
C    -2.5988507   -2.4458163   -1.5625770 
C    -2.9540283   -2.7048207    0.7204025 
C    -2.6732253    0.0239873   -1.5551559 
C    -3.1649890   -0.4332412    1.1694615 
C    -3.1925088   -1.2295149   -1.1168198 
C    -3.5168054   -1.4316812    0.2708654 
C    -2.0843630    3.0661619    1.3305521 
C    -2.4240314    1.7656482    1.6724731 
C    -2.8316143    1.1958207   -0.6933299 
C    -3.0257310    0.9031977    0.7145479 
C    -1.3574524    2.4892151   -2.2012671 
C    -0.2531511    3.4026246   -2.2836835 
C     0.0346869    4.2348309   -1.1814617 
C    -0.8396785    4.3428423   -0.1151287 
C    -2.2441741    2.4875919   -1.0685496 
C    -2.0122378    3.4894009   -0.0367037 
