60 

C    -0.3700720   -3.0370561    2.4814674 
C     0.9366049   -2.4990462    2.6639248 
C     1.6603676   -2.6673567    1.4095342 
C    -0.4254089   -3.6174541    1.1664527 
C     0.8345814   -3.4708254    0.5152625 
C    -1.6118574   -3.1778028    0.5142387 
C    -1.5164832   -2.1950655    2.6525482 
C    -2.2332422   -2.1701516    1.3841046 
C    -1.3807471   -1.0257036    3.3969547 
C     1.0846208   -1.3161277    3.3897268 
C    -0.0875531   -0.7127674    3.9362722 
C     1.9455609   -0.2244524    2.9028539 
C     2.4444396   -1.5940043    0.8987678 
C     2.5321159   -0.2974920    1.6209476 
C     2.6791102   -1.6097788   -0.5024347 
C     0.8848369   -3.2920625   -0.8948688 
C     1.9917659   -2.5297552   -1.3870256 
C    -1.5818812   -3.0022227   -0.8613493 
C    -0.3555222   -3.1951910   -1.6177376 
C    -2.3348395   -1.9340119   -1.4578839 
C    -2.7035092   -0.9554348    0.8363057 
C    -2.8593933   -0.8878318   -0.6283810 
C    -1.9455609    0.2244524    2.9028539 
C    -2.5321159    0.2974920    1.6209476 
C     0.0875531    0.7127674    3.9362722 
C     1.3807471    1.0257036    3.3969547 
C    -1.0846208    1.3161277    3.3897268 
C     1.5164832    2.1950655    2.6525482 
C     2.7035092    0.9554348    0.8363057 
C     2.2332422    2.1701516    1.3841046 
C     2.9948082   -0.3935259   -1.2433291 
C     2.8593933    0.8878318   -0.6283810 
C     1.8993812   -1.8843781   -2.6465311 
C     2.5801837   -0.5968978   -2.5823630 
C    -0.4652275   -2.3725549   -2.7977291 
C    -1.7148931   -1.6452351   -2.7384925 
C     0.6780579   -1.7362246   -3.3411108 
C    -1.8064445   -0.3587188   -3.2783998 
C    -2.9948082    0.3935259   -1.2433291 
C    -2.5801837    0.5968978   -2.5823630 
C    -2.4444396    1.5940043    0.8987678 
C    -2.6791102    1.6097788   -0.5024347 
C    -0.9366049    2.4990462    2.6639248 
C     0.3700720    3.0370561    2.4814674 
C    -1.6603676    2.6673567    1.4095342 
C     1.6118574    3.1778028    0.5142387 
C     0.4254089    3.6174541    1.1664527 
C    -0.8345814    3.4708254    0.5152625 
C     2.3348395    1.9340119   -1.4578839 
C     1.5818812    3.0022227   -0.8613493 
C     1.8064445    0.3587188   -3.2783998 
C     0.6048428   -0.3331995   -3.7917254 
C    -0.6048428    0.3331995   -3.7917254 
C     1.7148931    1.6452351   -2.7384925 
C    -1.8993812    1.8843781   -2.6465311 
C    -1.9917659    2.5297552   -1.3870256 
C    -0.8848369    3.2920625   -0.8948688 
C     0.3555222    3.1951910   -1.6177376 
C    -0.6780579    1.7362246   -3.3411108 
C     0.4652275    2.3725549   -2.7977291 
