60 

C    -2.2550811   -3.7615386    0.3211183 
C    -0.9052720   -4.0178628    0.7093719 
C    -0.5360902   -3.1544705    1.8161708 
C    -2.7214937   -2.7020899    1.1076681 
C    -1.6704046   -2.2870828    2.0466125 
C    -3.2699908   -1.6802987    0.2599534 
C    -2.1951991   -3.2383932   -1.0536369 
C    -2.8514864   -1.9753608   -1.1036435 
C    -0.0800424   -3.9988582   -0.4509963 
C    -0.8695881   -3.3208386   -1.5210650 
C     1.2588226   -3.6891430   -0.2950536 
C     0.7878140   -2.6453477    1.9116028 
C     1.7499948   -3.1142155    0.9471169 
C     0.9690385   -1.3094011    2.4859274 
C    -1.5146271   -0.9175426    2.3585796 
C    -0.1742190   -0.4262551    2.6790076 
C    -3.3603488   -0.3639970    0.7195762 
C    -2.5525689    0.0291060    1.8814628 
C    -3.5701356    0.5909836   -0.3261896 
C    -2.3435115   -0.8947135   -1.8992812 
C    -2.9081154    0.3581551   -1.5941368 
C    -0.2618260   -2.2158989   -2.2495649 
C    -0.9904899   -0.9614949   -2.4520806 
C     1.9414255   -3.0430404   -1.3824719 
C     1.1619695   -2.1878307   -2.2395300 
C     2.8777509   -2.2865604    0.5820029 
C     2.9901072   -2.2537812   -0.8598770 
C     2.2654956   -0.7035676    2.3351261 
C     3.1700856   -1.1388543    1.2971071 
C     2.4545958    0.6971504    2.4707221 
C     0.0458596    1.0258815    2.7075869 
C     1.3700514    1.5734385    2.5414011 
C    -2.3231893    1.4093482    2.0420569 
C    -1.0028903    1.8980325    2.3787208 
C    -3.4571670    1.9691700   -0.0560022 
C    -2.9042955    2.3808670    1.1532561 
C    -2.2833690    1.6025037   -2.0025745 
C    -2.7373380    2.6428101   -1.1516369 
C    -0.2648235    0.2884446   -2.7031803 
C    -0.9329600    1.5764463   -2.5083212 
C     1.8758274   -0.9345953   -2.3908932 
C     3.0261844   -0.9748347   -1.5172932 
C     1.1992997    0.2684372   -2.6684987 
C     3.6684239    0.0713077    0.6087252 
C     3.3471646    1.1654300    1.4228965 
C     3.4703990    0.1898234   -0.8314256 
C     1.6348405    2.7332846    1.6722266 
C     2.8259571    2.3986431    0.9090079 
C    -0.7539227    3.1450410    1.6244969 
C    -1.9022239    3.4076502    0.8685630 
C    -1.8012922    3.5518984   -0.5762151 
C     0.5582117    3.4446610    1.1022202 
C    -0.1538212    2.7563841   -2.2329652 
C    -0.5356133    3.6553953   -1.1473226 
C     0.6431650    3.8127621   -0.3006898 
C     1.9378524    1.4653882   -2.3381463 
C     3.0127974    1.4303181   -1.3417305 
C     2.8115720    2.5910312   -0.4865025 
C     1.2665301    2.6937400   -2.2275441 
C     1.7621605    3.3743348   -1.0518151 
