60 

C     0.0147284   -5.0738835   -0.2637696 
C    -1.2274334   -4.6824905    0.2041816 
C    -1.8745209   -3.7953499   -0.7575290 
C     0.2203553   -4.3707984   -1.5396976 
C    -0.9382791   -3.5075141   -1.8135489 
C     1.4619681   -3.7414729   -1.4718267 
C     1.0059163   -4.5381310    0.6903950 
C     1.9725979   -3.8672111   -0.0544491 
C    -1.0941803   -3.9192157    1.4461703 
C     0.3114891   -3.7635126    1.7275841 
C    -2.4355810   -2.7215645   -0.0349652 
C    -1.9302511   -2.7758918    1.3623314 
C    -2.5274457   -1.4635843   -0.6212145 
C    -0.7603036   -2.1377774   -2.2128694 
C    -1.7466946   -1.1631643   -1.8016370 
C     1.6604559   -2.4019687   -1.8635886 
C     0.5892623   -1.5775419   -2.3606099 
C     2.4667104   -2.6084354    0.3279994 
C     2.5263475   -1.7818522   -0.8678130 
C     0.7804167   -2.4679722    2.1162691 
C     2.0002993   -1.9367028    1.5091884 
C    -1.5705374   -1.5660434    1.9931539 
C    -0.2133748   -1.4525049    2.4936113 
C    -2.8597241   -0.3761678    0.2788920 
C    -2.2830065   -0.3602757    1.5958141 
C    -3.2162843    0.8162578   -0.3528448 
C    -1.5968054    0.2304615   -2.1597068 
C    -2.6007851    1.1174766   -1.6793729 
C     0.8114430   -0.1545380   -2.3897464 
C    -0.2945956    0.7736857   -2.5174724 
C     2.7204578   -0.4264385   -0.8185487 
C     2.0660932    0.3761317   -1.8471440 
C     2.3340624   -0.5397792    1.6133987 
C     2.9659384    0.1641469    0.4948491 
C     0.2354388   -0.1492064    2.7808273 
C     1.5690182    0.2751422    2.4833231 
C    -1.9159427    0.9393179    2.1287553 
C    -0.6147209    1.0296546    2.7075336 
C    -3.2852102    2.0233999    0.3640794 
C    -2.4425570    2.1280764    1.5383655 
C    -2.4440817    2.5154548   -1.7370696 
C    -3.0078860    3.1165725   -0.5300943 
C    -0.0747257    2.2203645   -2.4286152 
C    -1.1512622    3.0745595   -2.0094654 
C     2.2843801    1.7476579   -1.7997066 
C     1.2481264    2.6951080   -2.1328646 
C     3.1326072    1.5490009    0.5430853 
C     3.0497903    2.3062841   -0.6840196 
C     1.5754703    1.7189606    2.4068103 
C     0.2059420    2.1934604    2.5295371 
C     2.4645528    2.3648028    1.5605224 
C    -1.6107971    3.2997976    1.3364852 
C    -1.9778542    3.8722968    0.0371130 
C    -0.9164881    4.0483623   -0.9404427 
C    -0.2508004    3.3278866    1.7669053 
C     1.4595896    3.8564532   -1.2956233 
C     2.5762907    3.6078217   -0.4309612 
C     2.0694693    3.6122806    0.9295839 
C     0.3657578    4.2947230   -0.4876893 
C     0.7171535    4.0253898    0.9381406 
