60 

C    -2.1883176   -3.4535549   -0.5575235 
C    -1.7812349   -3.6863154    0.7603409 
C    -0.3854719   -4.0677362    0.7243911 
C    -1.0405753   -3.6897572   -1.4429473 
C     0.1013597   -4.0316992   -0.6289053 
C    -0.9855168   -2.6123112   -2.3431618 
C    -2.8222490   -2.2287820   -0.9328391 
C    -2.1066093   -1.6750738   -2.0708636 
C    -3.2263351   -1.3438135    0.0742091 
C    -1.9433768   -2.6440463    1.7528740 
C    -2.7574251   -1.5492634    1.4474526 
C     0.2813210   -3.3347628    1.7609209 
C    -0.6716053   -2.3955973    2.3873847 
C     1.5962166   -2.9673565    1.5711903 
C     1.3843790   -3.4406526   -0.8975179 
C     2.2204759   -3.1257868    0.2440380 
C     0.2738428   -2.0931549   -2.6973410 
C     1.4827918   -2.5491034   -2.0199741 
C     0.3930541   -0.7128233   -3.0053931 
C    -1.9737979   -0.2878890   -2.2595419 
C    -0.7290294    0.1871632   -2.8846977 
C    -3.2407083    0.0623779   -0.1825777 
C    -2.6798933    0.6405379   -1.3524099 
C    -2.4553208   -0.2640479    2.0004785 
C    -3.0069261    0.7247717    1.0879146 
C    -0.2668394   -1.0901476    2.7932621 
C    -1.2334741    0.0121388    2.6750360 
C     2.0872043   -1.7488627    2.1954883 
C     1.1651336   -0.7862438    2.7647380 
C     3.1737563   -2.0966473    0.1622334 
C     3.1622800   -1.3059984    1.3971964 
C     2.3790384   -1.4180104   -2.0116403 
C     1.7232536   -0.2889739   -2.6210174 
C     3.2296429   -1.1778771   -0.9260749 
C     1.9623919    1.0386470   -2.2071129 
C    -0.4181321    1.5402073   -2.8141505 
C     0.9434472    1.9723043   -2.5679241 
C    -2.3468931    2.0700936   -1.3140961 
C    -1.3116851    2.5423618   -2.1896429 
C    -2.6456174    2.0338282    1.1445695 
C    -2.5162398    2.8072163   -0.0795829 
C    -0.7903315    1.4143104    2.6962801 
C    -1.6145436    2.4443239    2.0911349 
C     1.5578380    0.5744859    2.6839889 
C     0.6041050    1.6674544    2.7211513 
C     3.3395029    0.0543623    1.0763412 
C     3.3516743    0.1802348   -0.3811649 
C     2.7580669    1.3025426   -0.9979493 
C     2.6430380    0.9951714    1.8293346 
C     1.1676424    2.7885839    1.9911435 
C     2.3989633    2.4642510   -0.1534873 
C     2.3057725    2.2653820    1.2536293 
C     0.8670793    3.2237272   -1.9398943 
C    -0.5275234    3.6766899   -1.8596085 
C     1.5485156    3.4979311   -0.7056021 
C    -1.6760285    3.9142450    0.2545360 
C    -1.0676288    3.6341082    1.5756650 
C     0.3489901    3.7863738    1.4435954 
C    -0.6663454    4.3309983   -0.6172814 
C     0.6248977    4.2194649    0.1014049 
