60 

C    -4.6725239   -0.8127895   -0.0060699 
C    -4.6186316    0.4830289   -0.6435619 
C    -3.9869420    0.2869795   -1.8874596 
C    -3.9583119   -1.7984732   -0.7889557 
C    -3.5824053   -1.1492360   -1.9956656 
C    -2.9399665   -2.3422222    0.0513611 
C    -4.1207274   -0.7283034    1.2965149 
C    -3.0750092   -1.7080154    1.3945433 
C    -4.0553560    1.4173844    0.3169434 
C    -3.8179805    0.6610507    1.5683147 
C    -3.0478218    2.2954516   -0.1064531 
C    -2.8702070    1.0788410   -2.2701855 
C    -2.4633319    2.1539197   -1.4395387 
C    -2.2531293   -1.1841748   -2.4289383 
C    -1.8290601    0.1918301   -2.7587145 
C    -1.6303604   -2.5505447   -0.4446495 
C    -1.2886589   -2.0178742   -1.7667847 
C    -0.5451535   -2.7100576    0.5187781 
C    -1.9329771   -1.4516805    2.1819186 
C    -0.6891434   -2.1450282    1.8556215 
C    -2.7010504    0.9346879    2.3418017 
C    -1.8465991   -0.1467108    2.8010057 
C    -1.9494206    2.6677272    0.7810414 
C    -1.8082228    2.0450400    2.0238701 
C    -1.0754609    2.4856795   -1.3570516 
C    -0.7554353    2.8827310    0.0048540 
C    -0.4864690    0.5420799   -2.7375623 
C    -0.0849655    1.8030730   -2.1081496 
C     0.0849655   -1.8030730   -2.1081496 
C     0.4864690   -0.5420799   -2.7375623 
C     0.7554353   -2.8827310    0.0048540 
C     1.0754609   -2.4856795   -1.3570516 
C     1.9494206   -2.6677272    0.7810414 
C     0.4931929   -1.7474230    2.5216976 
C     1.8082228   -2.0450400    2.0238701 
C    -0.5627873    0.4062339    3.0814743 
C    -0.4931929    1.7474230    2.5216976 
C     0.5627873   -0.4062339    3.0814743 
C     0.5451535    2.7100576    0.5187781 
C     0.6891434    2.1450282    1.8556215 
C     1.2886589    2.0178742   -1.7667847 
C     1.6303604    2.5505447   -0.4446495 
C     1.8290601   -0.1918301   -2.7587145 
C     2.2531293    1.1841748   -2.4289383 
C     2.4633319   -2.1539197   -1.4395387 
C     3.0478218   -2.2954516   -0.1064531 
C     2.8702070   -1.0788410   -2.2701855 
C     4.0553560   -1.4173844    0.3169434 
C     2.7010504   -0.9346879    2.3418017 
C     1.8465991    0.1467108    2.8010057 
C     1.9329771    1.4516805    2.1819186 
C     3.8179805   -0.6610507    1.5683147 
C     2.9399665    2.3422222    0.0513611 
C     3.0750092    1.7080154    1.3945433 
C     4.1207274    0.7283034    1.2965149 
C     3.5824053    1.1492360   -1.9956656 
C     3.9869420   -0.2869795   -1.8874596 
C     4.6186316   -0.4830289   -0.6435619 
C     3.9583119    1.7984732   -0.7889557 
C     4.6725239    0.8127895   -0.0060699 
