60 

C     4.5543941    0.8050224    0.7216339 
C     4.0596388    1.6014698   -0.3616235 
C     3.9269867    0.7957211   -1.5189967 
C     4.4158176   -0.5865391    0.2962014 
C     4.1408115   -0.6093205   -1.0877319 
C     3.4973870   -1.2719400    1.1703054 
C     3.6583406    0.9882759    1.8064521 
C     3.1284617   -0.2854454    2.1930351 
C     2.8724159    2.3234686    0.0843653 
C     2.6541305    1.9912945    1.4648698 
C     1.7347684    2.4854384   -0.7547905 
C     2.7594084    0.8397799   -2.2955630 
C     1.6822106    1.7698954   -2.0192550 
C     3.0927958   -1.3957947   -1.6066337 
C     2.3610367   -0.5388008   -2.5430239 
C     2.4800975   -2.1437112    0.6675877 
C     2.3034352   -2.2652801   -0.7793663 
C     1.2903266   -2.3624287    1.5196894 
C     1.8787961   -0.3249892    2.8009005 
C     1.0217017   -1.4400113    2.5945906 
C     1.3281681    1.9394713    2.0200314 
C     1.0364966    0.8490506    2.8770032 
C     0.4786980    2.8591604   -0.1032177 
C     0.2285664    2.5516361    1.2935631 
C    -0.6422249    3.0011536   -0.9541473 
C     0.3773664    1.4674115   -2.6014172 
C    -0.7410018    2.1954071   -2.1682392 
C     1.0864184   -0.8605979   -2.9457698 
C     0.0906693    0.1665340   -3.1163130 
C     1.0104665   -2.7091266   -1.3114558 
C     0.4497097   -2.0485276   -2.4626393 
C     0.1679291   -3.0322156    1.0006181 
C     0.0656134   -3.3042786   -0.4340503 
C    -1.1819453   -2.8233109    1.5239854 
C    -0.3325326   -1.0360066    2.9236317 
C    -0.3218346    0.3935889    3.0256967 
C    -1.4540117   -1.7319266    2.4213439 
C    -1.1495432    2.3479992    1.7650098 
C    -1.4230922    1.1759339    2.6135826 
C    -1.9261090    3.1317556   -0.4154518 
C    -2.2147641    2.8195474    0.9362612 
C    -2.0942458    1.6821179   -2.2562008 
C    -2.8677827    2.3967419   -1.2838885 
C    -1.2020421   -0.4415826   -2.9543766 
C    -0.9727101   -1.8281944   -2.6034135 
C    -2.3270763    0.2834212   -2.4562309 
C    -1.3146024   -3.3158569   -0.7539519 
C    -2.0724167   -3.0490465    0.4525148 
C    -1.8662260   -2.4798012   -1.7579777 
C    -3.3180246   -0.4085898   -1.5826932 
C    -3.1883730   -2.2065938    0.1653887 
C    -3.0318086   -1.7559346   -1.2080684 
C    -2.6570517   -0.9839245    2.2663685 
C    -2.6588559    0.4464337    2.4534233 
C    -3.5830279   -1.2830331    1.1518048 
C    -3.5021209    2.1321832    0.8991352 
C    -3.8408660    1.8068474   -0.5146657 
C    -4.0688701    0.3791213   -0.6146396 
C    -3.6998772    0.9854006    1.6255710 
C    -4.1800260   -0.0884747    0.7312281 
