60 

C    -1.1370219    4.1764610    0.3229111 
C     0.2145320    4.1976453    0.6636943 
C     0.3743564    3.4162633    1.9044897 
C    -1.8396710    3.2993796    1.2968735 
C    -0.8629607    2.7575712    2.1857241 
C    -2.7257259    2.4520445    0.5903196 
C    -1.5179363    3.7663558   -0.9613552 
C    -2.6020914    2.7717777   -0.8080273 
C    -0.5601066    3.2201367   -1.8633050 
C     1.2138704    3.7308262   -0.2473085 
C     0.8394083    3.1580432   -1.5248222 
C     1.5619038    2.6868405    1.8429551 
C     2.1925982    3.0289297    0.5620280 
C     1.6147909    1.3245049    2.3421752 
C    -0.8814819    1.3500441    2.4942405 
C     0.3798619    0.6324690    2.6705281 
C    -2.8757679    1.0945021    0.9749541 
C    -2.0549610    0.6102062    2.0760913 
C    -3.2566119    0.1311535   -0.0592955 
C    -2.4486795    1.7474181   -1.7406578 
C    -1.2069627    2.0398934   -2.4585378 
C    -2.8277286    0.4002031   -1.4233293 
C    -0.4715789    0.9924231   -2.9422012 
C     1.6308486    2.0013100   -2.0314334 
C     0.9639171    0.9684363   -2.7986766 
C     3.0391432    2.1100801   -0.0109112 
C     2.7948835    1.5887928   -1.3511299 
C     2.7378459    0.5598969    1.9050990 
C     3.4876524    1.0262807    0.7920847 
C     2.7042939   -0.8954303    1.8237887 
C     0.3839984   -0.8433656    2.6892594 
C     1.5656231   -1.6082191    2.2464057 
C    -2.0650179   -0.7836749    2.3368870 
C    -0.8549823   -1.5100811    2.6678579 
C    -3.4100979   -1.2228940    0.3382491 
C    -2.9364013   -1.6378020    1.6318518 
C    -3.0888129   -2.2865856   -0.5520758 
C    -2.1874019   -0.6759872   -2.1684278 
C    -0.9852575   -0.3657495   -2.8849473 
C    -2.3157275   -2.0219553   -1.7062669 
C     1.3412462   -0.4032156   -2.7596126 
C     0.1319052   -1.2350699   -2.8489756 
C     3.2353809    0.1845835   -1.3496005 
C     3.7695136   -0.1025662   -0.0638861 
C     3.4300328   -1.2917275    0.6173869 
C     2.4830224   -0.8430856   -2.0255444 
C     2.9676237   -2.3826278   -0.1314510 
C     2.4409315   -2.1543613   -1.4579828 
C     1.3710314   -2.9294515    1.6601532 
C     2.1044776   -3.2986167    0.5151902 
C    -1.0315478   -2.8830579    2.1535665 
C    -2.3275678   -2.9547825    1.5344793 
C    -2.4330616   -3.3642439    0.1941494 
C     0.0392239   -3.5294568    1.5510161 
C    -1.1937775   -2.9646879   -1.7424544 
C     0.0638966   -2.5377569   -2.2486832 
C     1.2648127   -3.0349562   -1.6202133 
C     1.1448073   -3.8190540   -0.4567057 
C    -1.2844509   -3.7918189   -0.5340973 
C    -0.1040429   -4.0521906    0.1875061 
