60 

C    -0.2142475    0.7020384    3.6064973 
C     0.8158286    1.4954337    3.0903715 
C     1.9306213    0.5812386    2.7458549 
C     0.2142475   -0.7020384    3.6064973 
C     1.5433727   -0.7736329    3.1179539 
C    -0.8158286   -1.4954337    3.0903715 
C    -1.5433727    0.7736329    3.1179539 
C    -1.9306213   -0.5812386    2.7458549 
C    -1.8955396    1.8610602    2.3083584 
C     0.4838319    2.6207285    2.2657846 
C    -0.8975523    2.8419016    1.9483779 
C     1.4710041    3.0013997    1.2969100 
C     2.7208932    0.8059883    1.6008825 
C     2.5479129    2.0859182    0.9512133 
C     3.2017711   -0.3532952    0.8079859 
C     1.8955396   -1.8610602    2.3083584 
C     2.7825197   -1.6682224    1.1852093 
C    -0.4838319   -2.6207285    2.2657846 
C     0.8975523   -2.8419016    1.9483779 
C    -1.4710041   -3.0013997    1.2969100 
C    -2.7208932   -0.8059883    1.6008825 
C    -2.5479129   -2.0859182    0.9512133 
C    -2.7825197    1.6682224    1.1852093 
C    -3.2017711    0.3532952    0.8079859 
C    -1.2856471    3.3871251    0.6445162 
C    -2.4526857    2.6831663    0.1917324 
C     1.0697391    3.6788652    0.1101881 
C    -0.2936904    3.7648123   -0.2734631 
C     2.7961940    2.2258741   -0.4647367 
C     1.8410015    3.1494005   -0.9970456 
C     3.4742660   -0.1498852   -0.5893834 
C     3.1146448    1.1127233   -1.2274247 
C     3.2029614   -1.1691943   -1.5284899 
C     2.4526857   -2.6831663    0.1917324 
C     1.2856471   -3.3871251    0.6445162 
C     2.6020703   -2.3854531   -1.1777872 
C    -1.0697391   -3.6788652    0.1101881 
C     0.2936904   -3.7648123   -0.2734631 
C    -2.7961940   -2.2258741   -0.4647367 
C    -1.8410015   -3.1494005   -0.9970456 
C    -3.4742660    0.1498852   -0.5893834 
C    -3.1146448   -1.1127233   -1.2274247 
C    -2.6020703    2.3854531   -1.1777872 
C    -3.2029614    1.1691943   -1.5284899 
C    -0.3622631    3.2657609   -1.6582954 
C     0.9654786    2.7829573   -2.0412347 
C    -1.4662261    2.5825362   -2.0937774 
C     2.3659233    0.8358065   -2.4477049 
C     2.4283353   -0.5608686   -2.6270352 
C     1.1442689    1.5252242   -2.7355415 
C     1.4662261   -2.5825362   -2.0937774 
C     0.3622631   -3.2657609   -1.6582954 
C    -0.9654786   -2.7829573   -2.0412347 
C     1.3096098   -1.3566418   -2.9012403 
C    -2.3659233   -0.8358065   -2.4477049 
C    -2.4283353    0.5608686   -2.6270352 
C    -1.3096098    1.3566418   -2.9012403 
C    -0.0265801    0.7393483   -3.1086762 
C    -1.1442689   -1.5252242   -2.7355415 
C     0.0265801   -0.7393483   -3.1086762 
