60 

C    -1.9647420   -4.0503982   -0.2811652 
C    -0.8495894   -4.0312838   -1.1818955 
C     0.3310944   -4.2313786   -0.4198302 
C    -1.4080743   -3.8951327    1.0724570 
C    -0.0341151   -4.1285211    1.0209252 
C    -1.8901636   -2.6467057    1.6346817 
C    -2.7254669   -2.8931362   -0.5333399 
C    -2.8204779   -2.0980343    0.6670450 
C    -0.9515779   -2.8458240   -2.0377429 
C    -2.2016772   -2.1998589   -1.6921335 
C     0.1797082   -2.0314829   -2.3054685 
C     1.4467829   -3.4223764   -0.6279694 
C     1.4572122   -2.4403763   -1.6939296 
C     0.8731472   -3.2224034    1.6272520 
C     1.9491472   -2.9839226    0.6843669 
C    -1.0203915   -1.7445657    2.3190686 
C     0.4033595   -2.0882971    2.3866117 
C    -1.4295064   -0.3382484    2.4038034 
C    -3.0594843   -0.7260541    0.5698096 
C    -2.5840309    0.1164820    1.6565565 
C    -2.3775896   -0.8193497   -1.8072149 
C    -3.1584962   -0.1457921   -0.7649830 
C    -0.0209008   -0.6077069   -2.6237668 
C    -1.3449125   -0.0480887   -2.4858144 
C     1.1258763    0.3131666   -2.6484391 
C     2.4819424   -1.5008462   -1.6376468 
C     2.3955515   -0.2138712   -2.2918393 
C     2.8159776   -1.8963964    0.7997012 
C     3.3120721   -1.3357418   -0.4334246 
C     1.3395611   -1.0346885    2.5612073 
C     2.5959159   -0.9797465    1.8784285 
C    -0.4396796    0.6782318    2.7825351 
C     0.9214752    0.3235299    2.8099444 
C    -0.7129106    2.0794177    2.5490590 
C    -2.8618735    1.5203790    1.5447178 
C    -1.9667374    2.4930146    2.0991733 
C    -3.3258283    1.2436521   -0.8610417 
C    -3.3574553    2.0475778    0.3178569 
C    -1.5105559    1.3762871   -2.5050196 
C    -2.5992239    1.9820859   -1.8541573 
C     0.9272109    1.7735731   -2.4583877 
C    -0.3791306    2.2708685   -2.3906713 
C     1.9083284    2.5468023   -1.7300413 
C     3.3872088    0.6229846   -1.6716342 
C     3.8657268   -0.0551329   -0.4580324 
C     3.1365722    1.9428011   -1.3659884 
C     3.0019552    0.4148307    1.7796133 
C     1.9661156    1.2289304    2.3456513 
C     3.7173374    0.8655861    0.6435969 
C     3.3779110    2.1474238    0.0801557 
C     0.2937558    2.9427302    1.9331451 
C     1.4731717    3.3192179   -0.5917511 
C     1.6110620    2.4946836    1.7713292 
C     2.3042759    2.9000389    0.5560355 
C    -1.7851190    3.5797386    1.1290518 
C    -2.6435832    3.3116043    0.0401236 
C    -2.1553673    3.2581547   -1.2768118 
C    -0.7615337    3.3887847   -1.5201818 
C    -0.3936408    3.7450559    0.9203232 
C     0.1343800    3.7277278   -0.4339041 
