60 

C     0.1120640    4.8007819    0.9869156 
C     1.0791882    4.7860868   -0.0434265 
C     0.4290851    4.3705366   -1.2782871 
C    -1.1444507    4.4268314    0.4283992 
C    -0.9630562    4.1218622   -0.9993501 
C    -1.6973565    3.3964764    1.2689834 
C     0.4617628    3.7635165    1.9692805 
C    -0.6546855    2.9224626    2.2087166 
C     2.0343920    3.7540243    0.2705842 
C     1.6872404    3.1415396    1.5573951 
C     1.2070008    3.3069048   -1.8559398 
C     2.2378341    2.9218888   -0.8733967 
C     0.5745677    2.2654733   -2.5213702 
C    -1.6094840    2.9665698   -1.5677697 
C    -0.8641200    2.1167043   -2.4616114 
C    -2.4981383    2.4388078    0.7025687 
C    -2.5578797    2.2570154   -0.7564527 
C    -2.6136286    1.1408194    1.3164305 
C    -0.4902697    1.5185425    2.4483478 
C    -1.6028709    0.6172208    2.1803540 
C     1.8568072    1.7583569    1.7111383 
C     0.8283131    0.9358142    2.3630741 
C     2.5847892    1.5718592   -0.6905467 
C     2.6401756    1.0894176    0.6808042 
C     1.1557955    0.9350409   -2.5515101 
C     2.2245313    0.5713525   -1.6962453 
C    -1.1402803    0.7114402   -2.6061388 
C     0.1092814   -0.0147692   -2.7680906 
C    -2.8905897    0.8921951   -0.9834531 
C    -3.1682109    0.2882358    0.3089362 
C    -2.2061113    0.0601947   -1.9377489 
C    -3.1498056   -1.0556374    0.4711525 
C    -1.4442873   -0.8323705    2.2601693 
C    -2.4560485   -1.6306497    1.6248620 
C     0.9932379   -0.5041752    2.4149539 
C    -0.1332841   -1.4407241    2.4532391 
C     2.8983234   -0.2457479    0.8682223 
C     2.2504154   -1.0076920    1.9413975 
C     2.4559418   -0.8334585   -1.4604078 
C     3.1243369   -1.1543322   -0.2276064 
C     0.2465151   -1.3915158   -2.4833054 
C     1.5625277   -1.8467688   -2.0187187 
C    -2.1570145   -1.3871349   -1.7611308 
C    -2.9137210   -1.9308433   -0.6620249 
C    -0.9715157   -2.1491451   -2.1802538 
C    -2.2373301   -2.9778481    1.3232647 
C    -2.6079135   -3.1931918   -0.1018195 
C     0.0799498   -2.8827760    2.1523121 
C    -1.0161591   -3.6477197    1.5846005 
C     2.4440231   -2.3599135    1.6699076 
C     3.0638980   -2.4557918    0.3214654 
C     1.4103909   -3.3271989    1.7659080 
C     1.6682762   -3.1999291   -1.5384058 
C     2.4561444   -3.4896963   -0.3477357 
C     1.5871498   -4.2038350    0.6122118 
C    -0.8059185   -3.5036745   -1.7144699 
C    -1.6584357   -4.0201262   -0.6548232 
C    -0.7963366   -4.5170780    0.4297402 
C     0.5017327   -3.9965770   -1.4510507 
C     0.4832114   -4.6476517   -0.1022448 
