60 

C     3.5286914   -2.3235810    0.5517707 
C     2.8417000   -2.9742738   -0.5315245 
C     2.5461195   -1.9755769   -1.5332594 
C     3.7584839   -0.9795542    0.2274901 
C     3.2100187   -0.7511286   -1.0990449 
C     3.1780042   -0.1692487    1.2688410 
C     2.6214223   -2.3725770    1.6933409 
C     2.3446333   -1.0354548    2.1060709 
C     1.7735696   -3.7359146    0.0050191 
C     1.5543824   -3.2561549    1.4016940 
C     0.6586599   -3.9327465   -0.7988708 
C     1.2339517   -1.8980909   -2.1223802 
C     0.3575781   -2.9930315   -1.8870177 
C     0.6504633   -0.5876585   -2.4299223 
C     2.6792927    0.4965238   -1.4114304 
C     1.4911291    0.5816785   -2.2661860 
C     2.7840773    1.1250620    0.9775061 
C     2.8555919    1.5626118   -0.4178577 
C     1.7647808    1.7220124    1.8161020 
C     1.0173244   -0.6133287    2.4127601 
C     0.7554212    0.8252363    2.3795420 
C     0.2318290   -2.9499311    1.8330492 
C    -0.0720065   -1.5903788    2.3297897 
C    -0.5564264   -4.2364614   -0.1614316 
C    -0.8025663   -3.7166994    1.1755382 
C    -1.0792918   -2.8535049   -1.9572135 
C    -1.6491935   -3.7868181   -1.0049981 
C    -0.7934189   -0.4072463   -2.4405974 
C    -1.6738377   -1.5533443   -2.1549963 
C    -1.3351664    0.9506592   -2.3067148 
C     0.9328518    1.8668918   -2.4469855 
C    -0.4878689    2.0697028   -2.4434450 
C     2.3928404    2.8456163   -0.7220293 
C     1.5347261    3.0258471   -1.8620658 
C     1.4730735    3.0931878    1.5494646 
C     1.9101169    3.7017738    0.3132061 
C     0.1956451    3.6142784    1.8670139 
C    -0.6085592    1.3043153    2.4313914 
C    -0.8576885    2.7164560    2.2041900 
C    -1.4322801   -1.0880845    2.2233880 
C    -1.6737071    0.3514987    2.1656723 
C    -2.1369238   -3.2687677    1.2046713 
C    -2.7003623   -3.3915664   -0.1720349 
C    -2.4625772   -1.9721776    1.6947922 
C    -2.9208783   -1.3061979   -1.4731615 
C    -3.3814912   -2.2154495   -0.4540019 
C    -3.4417339   -1.4362541    0.7808337 
C    -2.5260831    1.1562331   -1.4826991 
C    -2.7605942    0.8278061    1.3147497 
C    -3.1758175    0.0281335   -0.9742868 
C    -3.4142835   -0.0883350    0.4596255 
C    -1.9714445    3.1287784    1.3955171 
C    -2.6159368    2.3279176   -0.6705284 
C    -2.7225865    2.1299121    0.7678199 
C    -0.7581796    3.3982262   -1.8387433 
C     0.5107272    3.9980089   -1.5325608 
C     0.7894291    4.4908906   -0.2190914 
C    -0.2343314    4.5064934    0.7532882 
C    -1.8017011    3.5040973   -0.8907862 
C    -1.5295987    4.1096886    0.4017277 
