60 

C    -0.9345261    4.0695549    1.5730349 
C     0.2093642    4.3890685    0.8132933 
C    -0.1448799    4.2836541   -0.5994629 
C    -2.0028535    3.6471394    0.7176664 
C    -1.5354480    3.7949532   -0.6460185 
C    -2.4476267    2.3744625    1.1785338 
C    -0.6252074    3.0034392    2.5005884 
C    -1.5852374    1.9728721    2.3174865 
C     1.3140707    3.6126519    1.3476090 
C     0.7559326    2.6867383    2.3747183 
C     2.2668474    3.1368222    0.4602492 
C     0.8050402    3.7398118   -1.4738100 
C     2.0871401    3.3509775   -0.9562018 
C     0.4156975    2.7006212   -2.4479035 
C    -1.8854990    2.7990627   -1.5566002 
C    -0.8990901    2.2719486   -2.5028769 
C    -2.8618979    1.3723521    0.2596758 
C    -2.6729887    1.6640054   -1.1318414 
C    -2.8582903   -0.0193612    0.6974977 
C    -1.2199509    0.6281537    2.4904142 
C    -2.0916437   -0.3849779    1.8939122 
C     1.1738360    1.3361910    2.4646431 
C     0.1799189    0.3008177    2.7254560 
C     2.8089416    1.7860203    0.6477672 
C     2.3534832    0.9334899    1.6946526 
C     2.4623719    2.1278627   -1.5880694 
C     1.4590800    1.6849380   -2.5059416 
C     3.0312467    1.2106453   -0.6486936 
C     1.1958752    0.2948496   -2.6473650 
C    -1.1836520    0.8747723   -2.7439355 
C    -2.3916383    0.5613537   -2.0199568 
C    -0.1808102   -0.1270510   -2.8855529 
C    -3.0341402   -1.0339515   -0.2736150 
C    -2.6673026   -0.7329732   -1.6447318 
C    -2.6973454   -2.4101728   -0.0313586 
C    -1.7846913   -1.7279276    2.1222664 
C    -2.2186282   -2.7846459    1.2358214 
C     0.5668607   -1.1019698    2.7105808 
C    -0.4627828   -2.1068393    2.6453858 
C     2.6176439   -0.4392291    1.5237449 
C     1.8430694   -1.4730658    2.2024183 
C     2.9439939   -0.1748617   -0.8865023 
C     2.1113095   -0.6569111   -1.9939287 
C     3.0379135   -0.9910875    0.2739153 
C     1.7709495   -2.0167949   -1.9869731 
C    -0.5722767   -1.5171366   -2.6760800 
C    -1.8543672   -1.8198176   -2.1225304 
C    -2.0463680   -2.9488347   -1.2234054 
C     0.4622705   -2.4876920   -2.4343468 
C    -1.0657976   -3.9489556   -1.1138781 
C     0.1780697   -3.7144014   -1.7959698 
C    -1.2666769   -3.8556322    1.3326132 
C    -0.1714212   -3.4179499    2.2179513 
C    -0.7325704   -4.4649348    0.2021756 
C     2.0520933   -2.7295068    1.5309700 
C     2.6896703   -2.3855376    0.2561500 
C     2.2217924   -2.9398511   -0.9373582 
C     1.2707322   -4.0123525   -0.8638959 
C     1.0696259   -3.7399850    1.5763773 
C     0.7407672   -4.4448216    0.3512349 
