60 

C     0.3915941   -4.7463567    0.2327890 
C    -0.9957740   -4.4561757    0.1121622 
C    -1.2810103   -4.0185952   -1.2228789 
C     1.0384186   -4.2447348   -0.9765410 
C     0.0268738   -3.7937206   -1.8551343 
C     2.0015343   -3.2589556   -0.6026619 
C     0.8689406   -3.9147945    1.3006743 
C     1.9622185   -3.1255742    0.8500456 
C    -1.4054921   -3.6032003    1.2377765 
C    -0.2000254   -3.2223026    1.9801165 
C    -2.3658490   -2.6372004    1.0067697 
C    -2.0610720   -2.8642612   -1.4362007 
C    -2.7846583   -2.3018884   -0.3566226 
C     0.0271916   -2.4731909   -2.4335278 
C    -1.3003639   -1.9304945   -2.2859792 
C     2.1895075   -2.0559145   -1.3766603 
C     1.1325242   -1.5905559   -2.2921412 
C     2.9877500   -1.0996984   -0.7469164 
C     2.2618601   -1.8926081    1.4777394 
C     3.1338818   -1.0820491    0.7062580 
C    -0.0169483   -1.8909823    2.4675041 
C     1.3007791   -1.2447479    2.3561075 
C    -2.3482786   -1.4025498    1.7631078 
C    -1.1961546   -1.0216389    2.5184773 
C    -3.0863558   -0.9225383   -0.3711789 
C    -3.0157840   -0.4044691    0.9866464 
C    -1.5267827   -0.5468258   -2.2717577 
C    -2.6253926   -0.0643668   -1.4312924 
C     0.9216396   -0.1643891   -2.4758382 
C    -0.4291038    0.3658143   -2.5773386 
C     3.0383048    0.2684047   -1.2192376 
C     1.9929938    0.7559863   -2.0948495 
C     3.3611377    0.2486196    1.0628474 
C     3.5023298    1.0697262   -0.1473910 
C     1.4251918    0.1987285    2.5572863 
C     2.5166053    0.9252806    1.9560118 
C    -1.0274883    0.3720273    2.7492329 
C     0.2609003    0.9733098    2.8165839 
C    -2.8726263    0.9772901    1.2331871 
C    -1.9492249    1.3710216    2.2360614 
C    -2.7542634    1.3075919   -1.2344098 
C    -3.0605926    1.8552556    0.1001707 
C    -0.6789836    1.8029022   -2.5097773 
C    -1.9430702    2.2574368   -1.9513527 
C     1.7354403    2.1419085   -2.0422673 
C     0.4374886    2.6987903   -2.3868378 
C     2.9653850    2.3326636    0.1023514 
C     2.3392801    2.2966917    1.4234297 
C     2.3044137    2.9779626   -0.9685672 
C     0.1320525    2.3736505    2.4098515 
C    -1.2499764    2.6306831    2.1332057 
C     1.1685134    3.0432211    1.6596297 
C    -2.5771986    3.1550801    0.1264610 
C    -2.0100286    3.4754569   -1.2011305 
C    -1.6176659    3.5754393    1.1296485 
C     0.3079748    3.9347884   -1.6647219 
C     1.3719554    3.9683930   -0.6694841 
C     0.7665670    4.0348032    0.6531441 
C    -0.8843517    4.2614020   -1.0070172 
C    -0.6067322    4.3244500    0.4644368 
