60 

C     1.5158446   -3.8224077    0.4565426 
C     0.4238693   -4.1726193   -0.3352402 
C    -0.7849896   -3.9999331    0.4627119 
C     0.9770214   -3.3234332    1.7359674 
C    -0.4357425   -3.3454547    1.7134224 
C     1.6794197   -2.1591469    2.0901386 
C     2.4933836   -2.8848243    0.0146737 
C     2.6989653   -1.9023348    1.0869128 
C     2.4124181   -2.3930639   -1.2945774 
C     0.2083455   -3.5048498   -1.5974447 
C     1.2128609   -2.6658217   -2.0862507 
C    -1.7680910   -3.4276576   -0.3501743 
C    -1.1630143   -3.0292698   -1.6381290 
C    -2.7122395   -2.5858263    0.2551460 
C    -1.1757054   -2.1637722    2.1572987 
C    -2.4252951   -1.9384057    1.5295643 
C     0.9958458   -1.0658994    2.7212058 
C    -0.4539087   -1.0106338    2.7177425 
C     1.7592319    0.1327490    2.7539437 
C     3.1486819   -0.5835354    0.8287609 
C     2.8172875    0.3875691    1.8175278 
C     2.8447007   -1.0412983   -1.5812542 
C     3.3180874   -0.1487521   -0.5640924 
C     0.8630286   -1.4295923   -2.7612447 
C     1.9834271   -0.5381937   -2.6195771 
C    -1.5083630   -1.7758954   -2.2210912 
C    -0.4646036   -0.9172631   -2.7878145 
C    -3.3487168   -1.6320007   -0.5597262 
C    -2.7070492   -1.1354501   -1.7280960 
C    -3.0368422   -0.6135660    1.4881096 
C    -3.7114378   -0.4877147    0.2504274 
C    -1.1065206    0.3204258    2.7511961 
C    -2.3901050    0.5248972    2.0723650 
C     1.1116043    1.3651885    3.0413263 
C    -0.2995022    1.4754367    2.9641856 
C     2.7527989    1.8257888    1.5110642 
C     1.7303275    2.4312028    2.3174111 
C     3.2409360    1.2564317   -0.8438407 
C     2.8968423    2.2388778    0.1994948 
C     1.8138031    0.8299731   -2.7993742 
C     2.6089325    1.7082361   -2.0180983 
C    -0.6593921    0.5526846   -2.8416990 
C     0.4822513    1.3825715   -2.9396573 
C    -2.8817920    0.3089446   -1.7539441 
C    -3.5867526    0.6832317   -0.5269393 
C    -1.8848977    1.1642221   -2.2883946 
C    -2.6731719    1.7958188    1.4744168 
C    -3.2561212    1.8598490    0.1420748 
C    -0.5611214    2.7516644    2.2933604 
C     0.7049747    3.2549938    1.7635792 
C    -1.7303837    2.9129549    1.5711030 
C     1.9575381    3.2327540   -0.3518769 
C     1.8105600    2.8848797   -1.7099888 
C     0.5274883    2.7224077   -2.3233568 
C     0.8018863    3.6875033    0.3947765 
C    -1.8377571    2.5160169   -1.7616256 
C    -2.5519531    2.8551861   -0.5870224 
C    -1.6733059    3.5800787    0.3062347 
C    -0.5725896    3.2353970   -1.6739504 
C    -0.4309977    3.8206811   -0.3382035 
