60 

C     1.2908785    4.3001549   -0.7650683 
C     2.2281312    3.5346988   -0.0572748 
C     2.7076008    2.4146539   -0.8610975 
C     0.9375081    3.4852265   -1.9133878 
C     1.8316593    2.3460564   -2.0000617 
C    -0.4457151    3.2309796   -1.9282692 
C     0.1009133    4.3440329    0.0589956 
C    -1.0032091    3.9067631   -0.7185424 
C     1.7164672    3.2416534    1.2781174 
C     0.3347079    3.6993765    1.3320696 
C     2.0797158    2.0376253    1.8571109 
C     3.1624812    1.2312099   -0.2273103 
C     2.9593381    1.0927516    1.1919150 
C     3.0910737    0.0510084   -1.0086670 
C     1.3702920    1.0809100   -2.4810925 
C     2.2012265   -0.0134096   -2.1333099 
C    -0.9607764    1.9378930   -2.3454376 
C    -0.0488940    0.8361452   -2.6842993 
C    -2.2588645    1.6211846   -1.8706510 
C    -2.0779564    3.3330064   -0.0556548 
C    -2.8303215    2.3617102   -0.7689241 
C    -0.6779467    2.8691284    1.9393964 
C    -1.9608818    2.8526975    1.3166092 
C     1.1257925    1.2820713    2.6505652 
C    -0.2574952    1.6453199    2.6685164 
C     2.6762946   -0.1991862    1.7229561 
C     1.5474540   -0.0827556    2.6426042 
C     3.1201652   -1.2677198   -0.4228958 
C     2.8694549   -1.4026205    0.9826702 
C     1.7700497   -1.3753027   -2.2913077 
C     2.5199972   -2.1907610   -1.3551812 
C    -0.5301244   -0.5417040   -2.6678356 
C     0.4157807   -1.6617748   -2.6181042 
C    -2.6839460    0.2614289   -1.7281754 
C    -1.8989116   -0.8010638   -2.1956034 
C    -3.4382364    1.4430559    0.1302359 
C    -2.8451811    1.6864581    1.4221255 
C    -3.4011407    0.1492568   -0.4490118 
C    -1.1817249    0.5678882    2.8295872 
C    -2.4648887    0.5817965    2.1715564 
C     0.6180551   -1.1499338    2.7859023 
C    -0.7565959   -0.8045564    2.8828840 
C     2.1406165   -2.5745480    1.4104109 
C     0.9499891   -2.4290479    2.2402178 
C     1.9801123   -3.4026487   -0.9071599 
C     1.8824751   -3.6250346    0.5127008 
C    -0.0402773   -3.0046804   -2.2661790 
C     0.7732704   -3.8802276   -1.5057795 
C    -2.2304660   -2.0857336   -1.6308624 
C    -1.4056885   -3.1989510   -1.8199323 
C    -3.2128725   -0.9969562    0.3708037 
C    -2.7563989   -0.7753507    1.7177283 
C    -1.7538825   -1.6430152    2.2369363 
C    -2.7835593   -2.1678919   -0.2860068 
C    -0.0570531   -3.3791977    1.8088444 
C     0.5603823   -4.1937646    0.8061194 
C    -0.0849849   -4.4263304   -0.4147201 
C    -1.4063675   -4.0014578   -0.6163846 
C    -1.4167996   -2.9084497    1.6279210 
C    -2.0907227   -3.2420679    0.3986875 
