60 

C     0.2558590   -4.6378022   -0.4698481 
C     1.4261829   -3.9165175   -0.1975347 
C     1.3785868   -3.3344361    1.1262610 
C    -0.6585535   -4.3670213    0.6323197 
C     0.0249850   -3.5650975    1.6297664 
C    -1.8388683   -3.8345148    0.0825557 
C    -0.3108829   -4.0143731   -1.6585001 
C    -1.6099694   -3.6032225   -1.3819602 
C     1.7448241   -3.0056292   -1.2936972 
C     0.6090750   -3.0055705   -2.1761080 
C     2.5021576   -1.8357325   -1.0503795 
C     2.0951341   -2.1501146    1.4091137 
C     2.8441977   -1.4644905    0.3326700 
C     1.5726977   -1.3434188    2.4651409 
C    -0.6455380   -2.4979607    2.2986718 
C     0.1931844   -1.4753041    2.8488501 
C    -2.4434382   -2.6751128    0.6056654 
C    -1.9616883   -2.0708467    1.8151124 
C    -2.0538286   -2.2819309   -1.6835360 
C    -2.7423654   -1.7878856   -0.5183145 
C     0.1301614   -1.7574735   -2.6853700 
C    -1.2555840   -1.3479467   -2.4369822 
C     2.3185018   -0.7965975   -1.9976309 
C     1.1069575   -0.7303377   -2.7580702 
C     2.7562323    0.5554654   -1.7414534 
C     3.2905210   -0.1542687    0.5620648 
C     3.3537048    0.8454511   -0.5113172 
C     1.9599556    0.0305517    2.6324080 
C     2.9177122    0.5769760    1.7766374 
C    -0.2796029   -0.1443183    3.1514928 
C     0.8051113    0.8104553    3.0197052 
C    -2.3576193   -0.7242781    2.0221903 
C    -1.5630839    0.2264250    2.7702958 
C    -2.9888539   -0.4193055   -0.3501631 
C    -3.0115319    0.0462070    0.9978626 
C    -1.5897414    0.0573589   -2.3642371 
C    -2.6094666    0.4964501   -1.4218355 
C     0.7527612    0.6543724   -2.8837178 
C     1.8258901    1.4743493   -2.3363792 
C    -0.6006997    1.0673742   -2.7896597 
C     1.5571240    2.7532481   -1.7663177 
C     3.1068439    2.1341858    0.0497068 
C     2.8121079    1.9545129    1.4677364 
C     2.2211932    3.0692660   -0.5082813 
C     0.5848988    2.1286785    2.5205772 
C     1.6692876    2.7245922    1.7810174 
C     1.4012284    3.5639386    0.6087854 
C    -1.8330922    1.5780170    2.3146676 
C    -2.8245688    1.4461722    1.2737787 
C    -0.7949454    2.5492794    2.1877402 
C    -2.7686210    1.8814640   -1.1569279 
C    -2.8919727    2.3550116    0.2277985 
C    -0.8099573    2.4497821   -2.5064818 
C     0.2646752    3.2956491   -1.9919611 
C    -2.0228337    2.8729685   -1.8718196 
C     0.1378572    4.0511700    0.3729164 
C    -0.9866027    3.5910646    1.2084362 
C    -2.1065834    3.5526079    0.3280758 
C    -0.3317475    4.1710178   -1.0063589 
C    -1.7273691    3.9774452   -1.0051777 
