60 

C     0.7669378   -4.3350877   -0.5051037 
C     0.3906610   -3.7550182   -1.7219579 
C    -1.0609301   -3.5109874   -1.7141332 
C    -0.4226916   -4.2419742    0.3817139 
C    -1.5500618   -3.8399077   -0.3977702 
C    -0.0489738   -3.5261845    1.5588854 
C     1.8662384   -3.8066760    0.1876111 
C     1.3636279   -3.3523395    1.5116274 
C     2.6342840   -2.7517577   -0.3391341 
C     1.0510907   -2.5695090   -2.1969875 
C     2.2213849   -2.0617941   -1.5545815 
C    -1.2953075   -2.2213469   -2.2156959 
C     0.0127947   -1.6360703   -2.5603972 
C    -2.3415552   -1.3865606   -1.6926497 
C    -2.4674036   -2.9908490    0.2057315 
C    -3.0679344   -1.9064279   -0.5583267 
C    -0.8692482   -2.4441633    2.0668402 
C    -2.1924391   -2.4390462    1.5396439 
C    -0.2539416   -1.1622501    2.4895479 
C     1.9566053   -2.1377369    1.8551075 
C     2.9477018   -1.9028375    0.8077364 
C     1.1927561   -1.0069247    2.3588890 
C     3.4107275   -0.6610402    0.6140174 
C     2.4995010   -0.6386576   -1.6869010 
C     3.4361175   -0.0755520   -0.7354800 
C     0.1974861   -0.2468374   -2.5676704 
C     1.5403326    0.2787827   -2.2697641 
C    -2.2368565    0.0454629   -1.8829602 
C    -0.9992806    0.5866903   -2.4526039 
C    -3.0520580    0.9406682   -1.0518990 
C    -3.6050271   -0.9818768    0.3745944 
C    -2.9495138   -1.2624292    1.6413625 
C    -3.5782980    0.3937873    0.1741761 
C    -1.0651622    0.0545892    2.5466190 
C    -2.4475740   -0.0512479    2.1766123 
C    -3.0988673    0.9989358    1.4315886 
C    -0.4545186    1.3931362    2.4580665 
C     1.8110744    0.3132419    2.2664015 
C     3.0681103    0.3973472    1.5534186 
C     0.9976175    1.5339521    2.3525191 
C     3.5683225    1.2892947   -0.5556936 
C     3.4660485    1.5821567    0.9096380 
C     1.6912711    1.7237448   -2.0766349 
C     2.7590365    2.2362371   -1.2410088 
C    -0.7964400    1.9944066   -2.4282197 
C     0.5357356    2.5433067   -2.1853693 
C    -2.7768124    2.3349024   -1.0290667 
C    -1.7643223    2.8762847   -1.8824316 
C    -2.5767044    2.2640668    1.4161424 
C    -1.2658886    2.4916298    2.0138929 
C    -2.7196044    3.0573828    0.2317163 
C     0.3400542    3.7342474   -1.3493828 
C    -1.0535922    3.9083913   -1.1626531 
C    -0.7057608    3.6204187    1.2901092 
C    -1.5833101    3.9136190    0.1619092 
C     1.5212441    2.7620011    1.8042758 
C     2.7364895    2.7381846    1.0466191 
C     2.4489142    3.2761527   -0.2887027 
C     0.6579192    3.7069136    1.1223672 
C     1.2099932    3.9131552   -0.2462007 
