60 

C    -1.3637075    4.4654950    0.8715395 
C     0.0258458    4.6895343    0.5756774 
C     0.1874217    4.6322971   -0.8513011 
C    -1.9596165    3.9375050   -0.3554235 
C    -1.0907459    4.1082089   -1.4336058 
C    -2.5104033    2.6159659   -0.0971752 
C    -1.4295794    3.4125629    1.8136088 
C    -2.2264043    2.3306891    1.2861497 
C     0.8244015    3.7941470    1.3831886 
C    -0.1080406    3.0211720    2.2162908 
C     1.9383891    3.0864560    0.8141732 
C     1.2220875    3.8957477   -1.4090261 
C     2.1537739    3.1437165   -0.6185823 
C    -0.7646215    2.9818558   -2.2689544 
C     0.6567999    2.9681156   -2.4098332 
C    -2.3763820    1.5523855   -1.0383436 
C    -1.4310212    1.7091531   -2.1324993 
C    -2.6669423    0.2263416   -0.5474337 
C    -2.0307120    0.9991258    1.7159445 
C    -2.6222456   -0.0010095    0.8771757 
C     0.1501405    1.6731177    2.6106253 
C    -0.8930937    0.6451005    2.5337107 
C     2.3121553    1.8695504    1.4518633 
C     1.4774664    1.2126696    2.4309785 
C     2.9656392    0.8007902    0.7470376 
C     2.3671888    1.8875958   -1.3084059 
C     1.3785137    1.7751141   -2.3771298 
C     2.8336513    0.7164866   -0.6705275 
C    -0.7224154    0.5060877   -2.5225594 
C     0.7268850    0.5301609   -2.5812992 
C    -2.4682618   -0.9159028   -1.4153956 
C    -1.3737995   -0.7775341   -2.3740764 
C    -2.7991014   -2.2188996   -0.9135325 
C    -2.5715719   -1.3258028    1.3574915 
C    -2.8908470   -2.3894110    0.5038984 
C    -0.5597379   -0.7628803    2.6868006 
C    -1.5105664   -1.7228327    2.2680001 
C     1.8177907   -0.1943665    2.4907267 
C     2.8575258   -0.4079500    1.5204020 
C     0.8447038   -1.1986052    2.7234174 
C     2.9876629   -1.6394869    0.9006891 
C     2.5699482   -0.5897631   -1.2903352 
C     1.4787062   -0.6675743   -2.2842737 
C     2.8645996   -1.7521931   -0.5550511 
C    -0.6060887   -1.9367863   -2.6768239 
C     0.8392053   -1.8906615   -2.5182358 
C    -2.1252126   -3.3971685   -1.4063761 
C    -1.0312974   -3.2305179   -2.2386132 
C    -2.0905505   -3.5495806    0.8939205 
C    -1.1782098   -3.1128659    1.9384824 
C    -1.6494176   -4.2015758   -0.2491369 
C     1.1723160   -2.5398009    2.3009780 
C     2.2923563   -2.7421179    1.4611346 
C     0.1519360   -3.5079193    1.8778481 
C     2.2259297   -3.0381943   -0.8333836 
C     1.2656241   -3.1274121   -1.8667345 
C     0.1332560   -3.9574755   -1.6911313 
C    -0.2363284   -4.4819283   -0.4103485 
C     1.9222951   -3.6769641    0.4063294 
C     0.6427071   -4.2319673    0.6874659 
