60 

C    -2.2119817   -3.8819169    0.1431217 
C    -0.8981312   -4.1035352    0.6240662 
C    -0.6383572   -3.2854076    1.7768147 
C    -2.7764304   -2.8355609    0.9363083 
C    -1.8271919   -2.4347956    1.9393339 
C    -3.1648589   -1.7643292    0.0697877 
C    -1.9960814   -3.2972703   -1.1728002 
C    -2.6346670   -2.0453706   -1.2641737 
C     0.0565355   -4.0642853   -0.4778467 
C    -0.6224626   -3.3879857   -1.5813419 
C     1.3667977   -3.7355559   -0.1962986 
C     0.6734299   -2.7666595    1.9848004 
C     1.7278560   -3.1164078    1.0837564 
C     0.7612109   -1.4729896    2.6096610 
C    -1.6984289   -1.0540157    2.3211165 
C    -0.4315131   -0.6529541    2.7954920 
C    -3.2441240   -0.4282574    0.5149849 
C    -2.5417357   -0.0052623    1.7069253 
C    -3.3913305    0.5007001   -0.5534563 
C    -2.0581642   -0.9736245   -2.0316649 
C    -2.6529034    0.2682960   -1.8054652 
C     0.0273102   -2.2884973   -2.2711267 
C    -0.6810467   -1.0226654   -2.4876267 
C     2.1201164   -3.0772855   -1.2156671 
C     1.4500999   -2.2597242   -2.1714822 
C     2.7961696   -2.1781240    0.8058741 
C     3.1114450   -2.2581303   -0.5892928 
C     1.8531769   -0.5951140    2.4199809 
C     2.8899907   -0.8884907    1.4763626 
C    -0.0375036    0.7267464    2.8271204 
C     1.3724793    0.7762398    2.6022560 
C    -2.2192527    1.4095624    1.8645297 
C    -0.9120315    1.7805131    2.4399430 
C    -3.3651269    1.8526335   -0.2802441 
C    -2.8299940    2.3498450    0.9482734 
C    -2.0395116    1.5026053   -2.1861420 
C    -2.6656166    2.5346281   -1.3890861 
C     0.0471738    0.2490125   -2.6331726 
C    -0.6435433    1.5366499   -2.4628394 
C     2.1787586   -0.9986305   -2.2830024 
C     3.2799439   -1.0623164   -1.3368825 
C     1.5048504    0.2246427   -2.5334257 
C     3.4831782    0.2012407    0.7780813 
C     3.6750254    0.0901013   -0.6580046 
C     1.9773119    1.8758785    1.9490136 
C     3.0657025    1.5887017    1.0339254 
C    -0.2612947    2.9965154    2.0420985 
C     1.1362075    3.0034147    1.6949719 
C    -2.1665804    3.5905476    0.5964982 
C    -1.9848541    3.6081332   -0.8933533 
C    -0.9318908    3.8796501    1.1119002 
C     0.0858282    2.7680058   -2.0078165 
C     1.2720301    3.7496835    0.4213212 
C    -0.5932368    3.7783830   -1.2078701 
C     0.0127257    4.1967944    0.0275704 
C     2.1920649    1.4245765   -2.1047873 
C     3.3057714    1.3258911   -1.2320992 
C     3.1309838    2.3113925   -0.1816658 
C     1.4714449    2.6402676   -1.7702088 
C     2.0942267    3.1939099   -0.5670462 
