60 

C    -4.7407294   -0.3946818   -0.0177370 
C    -4.5152495    0.9078438   -0.5902135 
C    -3.9368499    0.6951216   -1.8619012 
C    -4.1630516   -1.4321986   -0.8528555 
C    -3.6914420   -0.7763026   -2.0091121 
C    -3.2470040   -2.1888536   -0.0461069 
C    -4.1634212   -0.4584618    1.2747903 
C    -3.3520029   -1.6457317    1.3320910 
C    -3.7900443    1.6798245    0.4048287 
C    -3.5804531    0.8197713    1.6000402 
C    -2.7199640    2.4623251   -0.0148232 
C    -2.7484172    1.3620935   -2.2371878 
C    -2.2194058    2.3696958   -1.3868204 
C    -2.3615046   -0.9509797   -2.4317506 
C    -1.7995370    0.3770234   -2.7302773 
C    -1.9492909   -2.5066715   -0.5259273 
C    -1.5077178   -1.9151136   -1.7989502 
C    -0.8979293   -2.8027145    0.4570842 
C    -2.2442171   -1.6170467    2.1497804 
C    -1.0533894   -2.3604542    1.8029204 
C    -2.3687696    0.8734693    2.3396066 
C    -1.8188615   -0.3873712    2.7883704 
C    -1.5678192    2.6817716    0.8461419 
C    -1.3953328    1.9367934    2.0503985 
C    -0.8173124    2.5915111   -1.3439862 
C    -0.4314806    2.9458666    0.0144571 
C    -0.4258794    0.5904736   -2.7039024 
C     0.1052140    1.8173567   -2.1006846 
C    -0.1052140   -1.8173567   -2.1006846 
C     0.4258794   -0.5904736   -2.7039024 
C     0.4314806   -2.9458666    0.0144571 
C     0.8173124   -2.5915111   -1.3439862 
C     1.5678192   -2.6817716    0.8461419 
C     0.0574733   -1.8008497    2.5103111 
C    -0.4278288   -0.5494848    3.0814155 
C     1.3953328   -1.9367934    2.0503985 
C    -0.0574733    1.8008497    2.5103111 
C     0.4278288    0.5494848    3.0814155 
C     0.8979293    2.8027145    0.4570842 
C     1.0533894    2.3604542    1.8029204 
C     1.5077178    1.9151136   -1.7989502 
C     1.9492909    2.5066715   -0.5259273 
C     1.7995370   -0.3770234   -2.7302773 
C     2.3615046    0.9509797   -2.4317506 
C     2.2194058   -2.3696958   -1.3868204 
C     2.7199640   -2.4623251   -0.0148232 
C     2.7484172   -1.3620935   -2.2371878 
C     3.7900443   -1.6798245    0.4048287 
C     2.3687696   -0.8734693    2.3396066 
C     1.8188615    0.3873712    2.7883704 
C     2.2442171    1.6170467    2.1497804 
C     3.5804531   -0.8197713    1.6000402 
C     3.2470040    2.1888536   -0.0461069 
C     3.3520029    1.6457317    1.3320910 
C     4.1634212    0.4584618    1.2747903 
C     3.6914420    0.7763026   -2.0091121 
C     3.9368499   -0.6951216   -1.8619012 
C     4.5152495   -0.9078438   -0.5902135 
C     4.1630516    1.4321986   -0.8528555 
C     4.7407294    0.3946818   -0.0177370 
