60 

C    -0.7258114    0.9989937   -5.8331324 
C     0.7258114    0.9989937   -5.8331324 
C     1.1743875   -0.3815816   -5.8331324 
C    -1.1743875   -0.3815816   -5.8331324 
C     0.0000000   -1.2348241   -5.8331324 
C    -1.8979649   -0.6166862   -4.6165279 
C    -1.1730068    1.6145053   -4.6165279 
C    -1.9821391    0.6440360   -3.8810902 
C     1.1730068    1.6145053   -4.6165279 
C     0.0000000    2.0841444   -3.8810902 
C     1.8979649   -0.6166862   -4.6165279 
C     1.9821391    0.6440360   -3.8810902 
C     0.0000000   -1.9956384   -4.6165279 
C    -1.2250294   -1.6861083   -3.8810902 
C     1.2250294   -1.6861083   -3.8810902 
C    -1.2238639   -1.6845042   -2.4776516 
C    -1.9802535    0.6434234   -2.4776516 
C    -1.9596594   -0.6367319   -1.7571469 
C     0.0000000    2.0821617   -2.4776516 
C    -1.2111361    1.6669859   -1.7571469 
C     1.9802535    0.6434234   -2.4776516 
C     1.2111361    1.6669859   -1.7571469 
C     1.2238639   -1.6845042   -2.4776516 
C     0.0000000   -2.0605078   -1.7571469 
C     1.9596594   -0.6367319   -1.7571469 
C     0.0000000   -2.0543113   -0.3649584 
C    -1.9537661   -0.6348171   -0.3649584 
C    -1.2074939   -1.6619727    0.3649584 
C    -1.2074939    1.6619727   -0.3649584 
C    -1.9537661    0.6348171    0.3649584 
C     1.2074939    1.6619727   -0.3649584 
C     0.0000000    2.0543113    0.3649584 
C     1.9537661   -0.6348171   -0.3649584 
C     1.2074939   -1.6619727    0.3649584 
C     1.9537661    0.6348171    0.3649584 
C     1.2111361   -1.6669859    1.7571469 
C    -1.2111361   -1.6669859    1.7571469 
C     0.0000000   -2.0821617    2.4776516 
C    -1.9596594    0.6367319    1.7571469 
C    -1.9802535   -0.6434234    2.4776516 
C     0.0000000    2.0605078    1.7571469 
C    -1.2238639    1.6845042    2.4776516 
C     1.9596594    0.6367319    1.7571469 
C     1.9802535   -0.6434234    2.4776516 
C     1.2238639    1.6845042    2.4776516 
C     1.9821391   -0.6440360    3.8810902 
C     0.0000000   -2.0841444    3.8810902 
C     1.1730068   -1.6145053    4.6165279 
C    -1.9821391   -0.6440360    3.8810902 
C    -1.1730068   -1.6145053    4.6165279 
C    -1.2250294    1.6861083    3.8810902 
C    -1.8979649    0.6166862    4.6165279 
C     1.2250294    1.6861083    3.8810902 
C     1.8979649    0.6166862    4.6165279 
C     0.0000000    1.9956384    4.6165279 
C     0.7258114   -0.9989937    5.8331324 
C    -0.7258114   -0.9989937    5.8331324 
C    -1.1743875    0.3815816    5.8331324 
C     1.1743875    0.3815816    5.8331324 
C     0.0000000    1.2348241    5.8331324 
