60 

C     0.9477663   -3.7847390   -1.3892315 
C     2.1521537   -3.3943043   -0.8415669 
C     2.6165763   -2.1999089   -1.5736230 
C     0.6019759   -2.8128841   -2.4553777 
C     1.6018075   -1.7926965   -2.5093576 
C    -0.7341961   -2.4684923   -2.2884457 
C    -0.2092324   -4.0008515   -0.5697989 
C    -1.2993083   -3.2674140   -1.1811807 
C    -0.0547325   -3.9512620    0.8423873 
C     2.2596630   -3.1023699    0.5690496 
C     1.1769675   -3.3912263    1.4044180 
C     3.1336044   -1.2899909   -0.6539207 
C     2.9121628   -1.8189906    0.6924749 
C     3.0664049    0.1115171   -0.9467030 
C     1.2485535   -0.4121988   -2.6249536 
C     2.1762896    0.5558403   -2.0364710 
C    -1.1555592   -1.1062478   -2.5505777 
C    -0.1498334   -0.0521700   -2.7805424 
C    -2.4161766   -0.7641668   -2.0442368 
C    -2.3607031   -2.7214648   -0.4179958 
C    -3.0258761   -1.5770975   -0.9695302 
C    -1.1383951   -3.4274356    1.6093589 
C    -2.2777417   -2.8269613    1.0259675 
C     0.7776050   -2.3998914    2.4217761 
C    -0.6144453   -2.5100218    2.6039305 
C     2.5740270   -0.8911944    1.7080012 
C     1.3848054   -1.1178429    2.5240447 
C     3.3189550    0.9624024    0.1385644 
C     3.0109858    0.4451630    1.4805547 
C     2.9610290    2.3609118    0.0937267 
C     1.8204024    1.9068484   -2.0691181 
C     2.3078306    2.8613790   -1.0596214 
C    -0.5424774    1.3450605   -2.6537098 
C     0.4982375    2.3230285   -2.5021188 
C    -2.7814174    0.6184345   -1.8500967 
C    -1.8810439    1.6825322   -2.1506900 
C    -3.6685905   -0.6629203   -0.1186457 
C    -3.5801515    0.6628555   -0.6744936 
C    -2.6010042   -1.6428380    1.8322209 
C    -1.4650625   -1.3667377    2.6784444 
C    -3.2883905   -0.5856168    1.2712431 
C     0.5337760    0.0424284    2.8505351 
C    -0.9144510   -0.0576011    2.7789778 
C     2.4110878    1.4979177    2.1823924 
C     2.4421502    2.7137968    1.3732450 
C     1.0998440    1.3381513    2.7050407 
C     1.2161690    3.3988852    1.5118468 
C     0.3285915    2.5099907    2.2942763 
C     1.3172593    3.8483946   -0.9011910 
C     0.2385979    3.5799404   -1.8714650 
C     0.7099558    4.0964999    0.3849185 
C    -2.0286203    2.8623651   -1.3336962 
C    -0.9779177    3.8082136   -1.2396582 
C    -0.7017813    4.0873622    0.1831126 
C    -3.2477696    1.5781069    0.3612965 
C    -2.8893737    0.7837124    1.5483791 
C    -1.6954708    1.0794386    2.2533049 
C    -1.0401290    2.3770412    1.9822901 
C    -2.5506034    2.7090843    0.0178553 
C    -1.5547799    3.2502349    0.9343839 
