60 

C     1.0614476    4.5442057   -0.7661979 
C    -0.1393256    4.5929835    0.0316222 
C     0.1597685    4.1986528    1.3754920 
C     2.0540359    3.8981589    0.0357686 
C     1.5269741    3.7053165    1.3626423 
C     2.5265790    2.7212847   -0.6337067 
C     0.7861083    3.6328227   -1.8477855 
C     1.7564989    2.5769585   -1.8647764 
C    -1.1893491    3.8845843   -0.6674154 
C    -0.5840902    3.2377479   -1.8542928 
C    -2.1115338    3.1495606    0.0692820 
C    -0.6386261    3.2220607    2.0385162 
C    -1.8521242    2.8207811    1.4745964 
C     1.5678121    2.4286616    1.9962825 
C     0.2351619    2.1409125    2.4970353 
C     2.8588080    1.5462809    0.0990811 
C     2.3486433    1.3548122    1.4630854 
C     2.9958489    0.3885805   -0.6846190 
C     1.4083415    1.2914403   -2.3524317 
C     2.2737707    0.2518772   -1.9241804 
C    -0.9781638    1.9177142   -2.2568005 
C     0.0315649    0.9398765   -2.6433744 
C    -2.7445178    2.0048003   -0.5205621 
C    -2.2467016    1.4218505   -1.7388272 
C    -2.3639766    1.4916756    1.7028621 
C    -3.1544708    1.1204900    0.5490157 
C    -0.2111105    0.8155752    2.6503403 
C    -1.6051180    0.4810481    2.3447344 
C     2.0653042    0.0192195    1.9057010 
C     0.7995682   -0.2284044    2.6025110 
C     3.1073218   -0.9156516   -0.1130462 
C     2.7005425   -1.1246605    1.2357493 
C     2.0191287   -1.1388724   -2.1337278 
C     2.7588690   -1.8867201   -1.1383856 
C    -0.3033839   -0.4897145   -2.7546794 
C     0.7287228   -1.5463085   -2.5833312 
C    -2.6013465    0.0726931   -1.9856360 
C    -1.6442201   -0.8702824   -2.5485372 
C    -3.4759874   -0.2001457    0.2859705 
C    -3.4133300   -0.6455493   -1.0548419 
C    -1.9711166   -0.9246277    2.1152416 
C    -2.9431424   -1.2651104    1.1346118 
C     0.3648620   -1.5655623    2.7705356 
C    -1.0228815   -1.9315266    2.4389417 
C     2.3221187   -2.4688294    1.5960266 
C     1.1921759   -2.6614759    2.4763704 
C     2.3561047   -3.1666147   -0.7690015 
C     2.2927108   -3.5099919    0.6223750 
C     0.3526229   -2.8910759   -2.2242893 
C     1.1910099   -3.7036719   -1.4248296 
C    -1.9798949   -2.2045723   -2.0282936 
C    -2.9783309   -2.0149771   -1.0283015 
C    -2.7469028   -2.4495627    0.3121313 
C    -1.0236601   -3.1732830   -1.8129774 
C    -0.9816060   -3.2235977    1.8044314 
C     0.3660385   -3.7188956    1.9388305 
C     1.0421395   -4.2643326    0.8280025 
C     0.3678272   -4.3503889   -0.4081333 
C    -1.7207875   -3.4096162    0.5736761 
C    -0.9927327   -3.9286039   -0.5684812 
