60 

C    -1.8665227   -4.1849183    0.2814731 
C    -0.7033338   -4.5362770   -0.4502325 
C     0.3944755   -4.4945494    0.4654819 
C    -1.4824427   -3.7169381    1.6168217 
C    -0.1031535   -3.9505171    1.7584314 
C    -1.9698503   -2.3836853    1.7706109 
C    -2.5369608   -3.1148456   -0.3885453 
C    -2.7398879   -2.0640418    0.5482128 
C    -0.6640479   -3.6759376   -1.6333666 
C    -1.8569583   -2.7929898   -1.6084278 
C     0.5501843   -3.1094312   -2.0025752 
C     1.5844457   -3.8147102    0.1352792 
C     1.7348897   -3.2383374   -1.1587050 
C     0.7659167   -2.9056007    2.1695024 
C     1.9251467   -2.9605617    1.2793832 
C    -1.1531062   -1.3477796    2.3222774 
C     0.2631650   -1.6093768    2.5497692 
C    -1.6101385    0.0165929    2.1326953 
C    -2.8230329   -0.7534787    0.1000604 
C    -2.6129145    0.2648749    1.1145672 
C    -1.7982520   -1.4440325   -2.0361724 
C    -2.5207105   -0.4306331   -1.2749954 
C     0.5863357   -1.7787099   -2.6060756 
C    -0.5883523   -0.9805931   -2.7131176 
C     2.4855026   -2.0248661   -1.3241267 
C     1.8420850   -1.1597506   -2.3026806 
C     2.6974301   -1.8425971    1.1110803 
C     3.0974189   -1.3987572   -0.2223840 
C     1.1706477   -0.4645077    2.5124507 
C     2.4339360   -0.6549881    1.8824489 
C    -0.7889205    1.1434858    2.5483061 
C     0.6598529    0.9084427    2.6314080 
C    -1.2803388    2.4592801    2.2979132 
C    -2.9471425    1.5663631    0.7550254 
C    -2.4690977    2.6434504    1.5244038 
C    -2.4104275    0.9751884   -1.6221668 
C    -2.8856013    1.9492472   -0.6872674 
C    -0.3839639    0.4102697   -2.8891303 
C    -1.3841794    1.3922871   -2.5176343 
C     2.0063446    0.2518936   -2.2902511 
C     0.9106177    1.0166501   -2.7857606 
C     3.2822167    0.0153869   -0.1883001 
C     3.0535691    0.4362990    1.1843470 
C     2.8488471    0.8729818   -1.2667545 
C     1.5166785    1.9895164    2.2853505 
C     2.6868839    1.7304762    1.4760006 
C    -0.3645984    3.5501188    1.8902101 
C     0.9880968    3.2810109    1.8358472 
C    -2.2536106    3.7475210    0.6115811 
C    -2.4425777    3.2941789   -0.7487479 
C    -0.9683929    4.2775476    0.7806452 
C    -0.7347330    2.6668027   -2.3561356 
C     0.7098716    2.4074852   -2.4389166 
C    -1.2416825    3.6308676   -1.4760555 
C    -0.3184705    4.2823134   -0.5315387 
C     2.6402719    2.2458360   -0.9521254 
C     2.7091422    2.6874782    0.4100858 
C     1.7247997    3.6828997    0.6501407 
C     1.5870849    3.0507040   -1.5785551 
C     1.0475445    3.9859613   -0.5810659 
