60 

C    -1.9671702   -3.9484012    0.3227316 
C    -0.7666467   -4.1944237   -0.3698053 
C     0.3437049   -3.8828506    0.5115905 
C    -1.6205065   -3.2843560    1.5684284 
C    -0.2093501   -3.2995546    1.7339284 
C    -2.3575764   -2.0649180    1.7038061 
C    -2.7592573   -3.0074809   -0.4159746 
C    -3.1607601   -1.9550450    0.4830524 
C    -0.8405684   -3.4470195   -1.6148594 
C    -2.0823973   -2.6551340   -1.6236271 
C     0.3057884   -2.8572176   -2.1063580 
C     1.5614779   -3.3773838   -0.0105026 
C     1.5842160   -2.9700767   -1.3981185 
C     2.3869068   -2.6380595    0.9010287 
C     0.4266218   -2.1995678    2.3809937 
C     1.8103954   -2.0388000    2.1069904 
C    -1.7632192   -0.9026359    2.2836893 
C    -0.3819961   -1.0059372    2.7350158 
C    -2.3122008    0.4156853    1.9126542 
C    -3.3568834   -0.7054351   -0.0425404 
C    -3.1526694    0.4651068    0.7734643 
C    -2.0868828   -1.2905409   -2.0919307 
C    -2.9321209   -0.3767741   -1.3930976 
C     0.2628670   -1.5623670   -2.7713771 
C    -0.8919466   -0.7219267   -2.7193895 
C     2.3926966   -1.8705801   -1.8110376 
C     1.5835713   -1.0204283   -2.6873089 
C     3.3646219   -1.7345585    0.4082427 
C     3.3185411   -1.2645595   -0.9334128 
C     2.4741698   -0.7754290    2.3154840 
C     3.4402070   -0.5832249    1.2858021 
C     0.3114492    0.2120124    2.9650776 
C     1.7365248    0.3311480    2.7267181 
C    -1.6004673    1.6549517    2.2491851 
C    -0.2852087    1.5053466    2.7634538 
C    -1.8887260    2.8786189    1.5495943 
C    -3.0947493    1.5855604   -0.1250136 
C    -2.7466666    1.0399937   -1.4372973 
C    -2.6342999    2.8165609    0.2882584 
C    -0.6935280    0.7353255   -2.7583373 
C    -1.7008989    1.6486128   -2.1862777 
C     1.7640432    0.3503408   -2.6885337 
C     0.6377040    1.2252269   -2.8231306 
C     3.4373305    0.1930505   -0.8833645 
C     3.4639792    0.6063346    0.5201794 
C     2.7225265    0.9768724   -1.7770156 
C     1.9784980    1.6294815    2.1522084 
C     0.7793641    2.4184581    2.3606172 
C     2.7435027    1.7735590    0.9572102 
C    -0.8683581    3.8767140    1.3627928 
C     0.5107884    3.5351327    1.5961440 
C    -1.9672235    3.6379092   -0.6810653 
C    -1.3502175    2.9902858   -1.8109010 
C    -0.9563095    4.3625494    0.0225629 
C     1.0090034    2.4901864   -2.2061880 
C     2.2033742    2.2649032   -1.4051206 
C     2.2425704    2.7275456   -0.0486022 
C     1.2603934    3.6959406    0.3264815 
C     0.0606390    3.4141764   -1.8202234 
C     0.3113286    4.1770959   -0.6269753 
