60 

C     1.6040217    3.6463023    0.6947251 
C     1.6040217    3.6463023   -0.6947251 
C     0.2178279    3.8969461   -1.1517381 
C     0.2178279    3.8969461    1.1517381 
C    -0.6229899    4.0240137    0.0000000 
C    -0.0694784    2.9703474    2.1751844 
C     2.1454365    2.5521176    1.4127294 
C     1.1828291    2.2805038    2.4702121 
C     2.7585430    1.4345869    0.7312607 
C     2.1454365    2.5521176   -1.4127294 
C     2.7585430    1.4345869   -0.7312607 
C    -0.0694784    2.9703474   -2.1751844 
C     1.1828291    2.2805038   -2.4702121 
C    -1.3117039    2.2244379   -2.1844193 
C    -1.8530406    3.3531262    0.0000000 
C    -2.2399779    2.5640593   -1.1637177 
C    -1.3117039    2.2244379    2.1844193 
C    -2.2399779    2.5640593    1.1637177 
C    -1.3253630    0.8444527    2.7464564 
C     1.1417437    1.0635018    3.0761165 
C    -0.1355317    0.4028633    3.3508613 
C     2.7928248    0.1605511    1.4492519 
C     2.0972444    0.0406636    2.6955223 
C     2.9476737   -1.0651934    0.7083570 
C     2.7928248    0.1605511   -1.4492519 
C     2.9476737   -1.0651934   -0.7083570 
C     1.1417437    1.0635018   -3.0761165 
C     2.0972444    0.0406636   -2.6955223 
C    -1.3253630    0.8444527   -2.7464564 
C    -0.1355317    0.4028633   -3.3508613 
C    -2.2276545   -0.2142941   -2.2086222 
C    -3.1251336    1.5368167   -0.7079910 
C    -3.1251336    1.5368167    0.7079910 
C    -3.0990267    0.1839384   -1.1741998 
C    -2.2276545   -0.2142941    2.2086222 
C    -3.0990267    0.1839384    1.1741998 
C    -3.3098982   -0.6552849    0.0000000 
C    -1.8482144   -1.6470041    2.2448166 
C     0.1667452   -0.9949228    3.4583719 
C     1.5348556   -1.2015688    3.1075717 
C    -0.6286996   -2.0238419    2.8893184 
C     2.3657847   -2.3429100    1.1654863 
C     1.6124304   -2.4008418    2.3317737 
C     0.2837536   -3.0064951    2.3022404 
C     2.3657847   -2.3429100   -1.1654863 
C     1.9581398   -3.0977380    0.0000000 
C     1.5348556   -1.2015688   -3.1075717 
C     0.1667452   -0.9949228   -3.4583719 
C     1.6124304   -2.4008418   -2.3317737 
C    -1.8482144   -1.6470041   -2.2448166 
C    -0.6286996   -2.0238419   -2.8893184 
C     0.2837536   -3.0064951   -2.3022404 
C    -2.9062189   -1.9601591    0.0000000 
C    -2.2865880   -2.5177611    1.1884363 
C    -2.2865880   -2.5177611   -1.1884363 
C    -0.1124489   -3.7378047    1.1821837 
C     0.7524143   -3.8112977    0.0000000 
C    -0.1124489   -3.7378047   -1.1821837 
C    -1.4510970   -3.5757810    0.7243227 
C    -1.4510970   -3.5757810   -0.7243227 
