60 

C     5.3337979   -0.7430025    0.2399754 
C     5.3512488    0.4374082   -0.5663650 
C     4.9608687    1.5572671    0.1809874 
C     4.6625659   -0.3583219    1.5059188 
C     4.4570644    1.0545170    1.4863870 
C     3.5182212   -1.2074707    1.7110521 
C     4.4381565   -1.6430128   -0.3937449 
C     3.4875594   -2.1216877    0.5665480 
C     4.3773596    0.2799998   -1.6845631 
C     3.8404073   -1.0214321   -1.6085381 
C     3.8453110    2.1757408   -0.4845860 
C     3.4671623    1.3945961   -1.6724460 
C     3.1313579    1.5422082    1.6535570 
C     2.8082800    2.3411443    0.4613532 
C     2.2499977   -0.7063484    2.1696280 
C     2.0556789    0.7292464    2.1623083 
C     1.0506395   -1.5068319    1.9369557 
C     2.2748130   -2.6082247    0.1178549 
C     1.1219814   -2.5258555    0.9450980 
C     2.4518247   -1.2497909   -1.9257572 
C     1.8056394   -2.3218623   -1.2465452 
C     2.0875640    1.2052010   -1.9630258 
C     1.5785238   -0.1240109   -2.2795227 
C     1.4789193    2.4675989    0.0414238 
C     1.1194141    2.0813185   -1.3010404 
C     0.7163586    1.2516055    2.0261373 
C     0.4763747    2.2858830    1.0464492 
C    -0.2700169   -0.9710135    2.1935356 
C    -0.4443973    0.4463007    2.3471442 
C    -1.4501102   -1.7340107    1.7630693 
C    -0.0390230   -2.7361805    0.0997594 
C     0.3971302   -2.4329852   -1.2370887 
C    -1.3226210   -2.4885236    0.5258791 
C     0.1439186   -0.3154236   -2.3762962 
C    -0.4577865   -1.5659033   -1.9717105 
C    -0.2557354    1.9930479   -1.6220398 
C    -0.7460657    0.8369717   -2.3493716 
C    -0.8375619    2.5761048    0.6582893 
C    -1.1958173    2.6090602   -0.7318986 
C    -1.7957238    1.0169099    2.2415284 
C    -1.9806208    2.1592548    1.4041552 
C    -2.7258591   -1.2632378    2.0637852 
C    -2.9238423    0.1568961    2.3751107 
C    -3.8765571   -1.7418484    1.3222434 
C    -2.3498726   -2.3304441   -0.5052554 
C    -1.8730583   -1.6924385   -1.7262370 
C    -3.6793722   -2.1284718   -0.0606478 
C    -2.1361567    0.6335630   -2.4152789 
C    -2.7266921   -0.6873757   -2.2969376 
C    -2.6080234    2.4304775   -0.8232184 
C    -3.1440207    2.2822016    0.5436708 
C    -3.1109042    1.5627716   -1.8095809 
C    -4.1899714    0.5113849    1.8184737 
C    -4.8531288   -0.6922540    1.3217181 
C    -4.2943083    1.5247323    0.7883991 
C    -4.6286209   -1.3572525   -0.8675870 
C    -4.0810999   -0.5705106   -1.9011827 
C    -4.3303742    0.8596340   -1.5804774 
C    -5.3549826   -0.4642220    0.0255306 
C    -5.0058140    0.9069020   -0.3429833 
