60 

C    -1.9222548   -4.3994598   -0.3887598 
C    -0.6030559   -4.8805039   -0.5186271 
C     0.1282205   -4.5332569    0.6725952 
C    -1.9832758   -3.6823127    0.8841055 
C    -0.7150107   -3.7449975    1.5589284 
C    -2.5531655   -2.3926223    0.6891455 
C    -2.0810955   -3.3449056   -1.3565453 
C    -2.6974920   -2.1838366   -0.7516090 
C     0.0681088   -4.1167566   -1.5766532 
C    -0.8611752   -3.1574967   -2.1098361 
C     1.4109035   -4.0208309    0.3141443 
C     1.3315628   -3.6451266   -1.1227318 
C     2.0269490   -3.1327119    1.1770590 
C    -0.1846730   -2.5627787    2.2020447 
C     1.2281823   -2.3749179    2.1635004 
C    -2.1782665   -1.2776401    1.4666877 
C    -0.9742290   -1.3349569    2.2705837 
C    -2.6489482   -0.0029077    0.9748320 
C    -2.4886879   -0.9207781   -1.2873123 
C    -2.7843822    0.2250947   -0.4277966 
C    -0.4458906   -1.8312834   -2.4276412 
C    -1.4374928   -0.7691069   -2.2890393 
C     1.8299659   -2.3721719   -1.5422301 
C     0.9583140   -1.4607525   -2.2977754 
C     2.9881560   -2.2334545    0.6447306 
C     2.8479507   -1.7836645   -0.7026410 
C     1.8423417   -1.0711804    2.3176511 
C     2.9800558   -1.0423777    1.4486204 
C    -0.3426655   -0.0589318    2.6142662 
C     1.0993202    0.1185701    2.5342262 
C    -2.3709102    1.1137376    1.8064887 
C    -1.1281859    1.1046377    2.5571418 
C    -2.6066654    2.4123922    1.3710088 
C    -2.6278894    1.5746104   -0.9445144 
C    -2.7125779    2.6919709   -0.0327422 
C    -1.0507279    0.5354900   -2.5706581 
C    -1.7521083    1.7149183   -2.0628284 
C     1.3223707   -0.0614499   -2.4208091 
C     0.3212187    0.8796676   -2.7723574 
C     3.0826197   -0.3574768   -0.7167464 
C     3.2003738    0.0957485    0.6626701 
C     2.4524822    0.4860645   -1.6508110 
C     1.6322547    1.4064137    2.0729341 
C     2.6802877    1.3431767    1.0707089 
C    -0.5722551    2.4483749    2.5078732 
C    -1.5864580    3.2980649    1.9548660 
C     0.8119344    2.6250846    2.1389942 
C    -1.9605997    3.8867173   -0.2726959 
C    -1.2632702    4.2590291    0.9963847 
C    -0.8779698    2.8437414   -2.1956279 
C     0.4384189    2.3129396   -2.5570904 
C    -0.9977271    3.9597718   -1.3071809 
C     2.4826360    1.8717032   -1.3409140 
C     2.7000002    2.3293898    0.0386760 
C     1.5812046    2.8299735   -1.9373923 
C     1.1302580    3.7647827    1.2944055 
C     0.0735005    4.5739043    0.7236811 
C     0.2238720    4.5270113   -0.7378654 
C     2.0818681    3.5642113    0.2220517 
C     1.4537750    3.9534548   -1.0315740 
