60 

C    -1.3968609   -4.4396383    0.8079903 
C    -0.5418797   -4.7432246   -0.2740107 
C     0.8268483   -4.3975556    0.0803366 
C    -0.5972697   -3.8111871    1.8149222 
C     0.8056529   -3.7947555    1.3841292 
C    -1.1941555   -2.5561006    2.1660819 
C    -2.3504064   -3.4298927    0.3488650 
C    -2.3421836   -2.3490747    1.2634985 
C    -0.9023200   -3.9155685   -1.3902961 
C    -2.0664641   -3.1065653   -1.0232397 
C     1.3803246   -3.6423107   -1.0040498 
C     0.2669129   -3.2602077   -1.9002884 
C     2.3169536   -2.6768884   -0.7157965 
C     1.6012033   -2.6419216    1.6565776 
C     2.5566226   -2.2701102    0.6546351 
C    -0.4220418   -1.4385697    2.5601298 
C     1.0313581   -1.5258196    2.4388684 
C    -1.0771509   -0.1316113    2.5558001 
C    -2.6306467   -1.0509927    0.8284062 
C    -2.2505539    0.0288009    1.7245797 
C    -2.1445632   -1.7738659   -1.4690730 
C    -2.7191176   -0.7701142   -0.5868320 
C     0.1959675   -1.9482301   -2.4226460 
C    -1.1144356   -1.2865016   -2.4050367 
C     2.4436216   -1.4841664   -1.5406933 
C     1.3948592   -1.0863278   -2.4073553 
C     3.1323175   -0.9584132    0.6048303 
C     3.1609040   -0.5003852   -0.7768450 
C     1.7408741   -0.3087736    2.4906679 
C     2.8537299   -0.0337542    1.6033920 
C    -0.3135455    1.0622696    2.8910514 
C     1.1078441    0.9555660    2.7905971 
C    -0.8889578    2.3567059    2.6584292 
C    -2.6778423    1.3221209    1.3511933 
C    -2.1257145    2.4571104    1.9614906 
C    -2.7959704    0.6054210   -1.0264761 
C    -2.9536371    1.6314736   -0.0633621 
C    -1.1802902    0.0409260   -2.8033334 
C    -2.1732914    0.9565048   -2.2719705 
C     1.2941521    0.3286204   -2.7452289 
C     0.0162004    0.8232712   -3.1451587 
C     3.0492198    0.8535858   -1.0681105 
C     2.1792455    1.2840469   -2.1393494 
C     2.8624513    1.3834514    1.3198108 
C     1.8784797    2.0087443    2.1656543 
C     3.0026277    1.8317340   -0.0066784 
C    -0.0712963    3.4411681    2.1535342 
C     1.2535351    3.2087261    1.7556937 
C    -2.0356325    3.5188621    0.9488806 
C    -2.4896693    2.9858880   -0.2984695 
C    -0.7791031    4.1131360    1.0617375 
C    -1.6801554    2.2681701   -2.4674315 
C    -0.3191065    2.1775235   -2.9915622 
C    -1.7282610    3.2690166   -1.4690924 
C     1.7485369    2.6344059   -1.8350206 
C     2.2212620    2.9612984   -0.4938895 
C     1.4133116    3.6919590    0.3714768 
C     0.1093367    4.1952234   -0.0713571 
C     0.4922154    3.0946021   -2.2579763 
C    -0.3740454    3.8421947   -1.3426302 
