60 

C    -1.0737030   -4.2442821    0.7593463 
C    -0.0613109   -4.2508482   -0.2543847 
C     1.1649614   -3.7585572    0.3021092 
C    -0.5550492   -3.5326627    1.8726766 
C     0.8410749   -3.2758357    1.6563529 
C    -1.4506452   -2.4420871    2.2024222 
C    -2.2160204   -3.5195094    0.2715645 
C    -2.5532539   -2.5178704    1.2508008 
C    -0.6077459   -3.5893681   -1.4113383 
C    -1.9617223   -3.0962794   -1.0653638 
C     0.2313092   -2.7749945   -2.1674835 
C     2.0581391   -3.0066016   -0.5066726 
C     1.6060078   -2.5811756   -1.8031765 
C     2.9420245   -2.1072846    0.1817803 
C     1.4055785   -2.0771425    2.1360354 
C     2.6258204   -1.6575340    1.5106968 
C    -0.9442215   -1.1803015    2.6106186 
C     0.5116868   -1.0345455    2.7105219 
C    -1.7716604    0.0175492    2.3770795 
C    -3.1262297   -1.3428464    0.8085164 
C    -2.8895766   -0.1111034    1.5091245 
C    -2.4048577   -1.8058099   -1.5184503 
C    -3.1983598   -1.0381525   -0.6129652 
C    -0.2611157   -1.5196025   -2.7447899 
C    -1.5623283   -1.0427155   -2.4521314 
C     2.0032679   -1.2756687   -2.3291295 
C     0.8462589   -0.6221454   -2.8968182 
C     3.5913143   -1.0264755   -0.5139228 
C     3.0111185   -0.5227125   -1.7349144 
C     3.1019482   -0.2935000    1.6078949 
C     3.7343300    0.0751544    0.3600592 
C     1.0185616    0.2737026    2.8010012 
C     2.3189562    0.6482223    2.2427667 
C    -1.2014888    1.3567107    2.5219476 
C     0.1877395    1.4468428    2.7675954 
C    -1.8161141    2.4903513    1.8551959 
C    -3.2449164    0.9653160    0.6054026 
C    -3.3167782    0.3881753   -0.7315721 
C    -2.7806644    2.2450177    0.7973661 
C    -1.7358835    0.3750308   -2.5709523 
C    -2.7020526    1.0844623   -1.7753921 
C     0.6986475    0.7952896   -2.8559905 
C    -0.6362933    1.2772541   -2.8362260 
C     2.8642402    0.9186778   -1.6246647 
C     3.3288245    1.2800528   -0.3058645 
C     1.7542961    1.6054658   -2.2157013 
C     2.2287412    2.0085694    1.7493524 
C     0.9856736    2.5512204    2.2225063 
C     2.6849374    2.3235016    0.4234160 
C    -1.0513488    3.6245622    1.4738574 
C     0.3794254    3.6396078    1.5786845 
C    -2.4140544    3.0889540   -0.3510523 
C    -2.2389618    2.4509116   -1.5880036 
C    -0.9634260    2.5779521   -2.2917547 
C    -1.4122079    3.9991850    0.1082990 
C     1.4003775    2.8610669   -1.6622982 
C     1.8949784    3.2492222   -0.3409804 
C     0.9030824    4.0331829    0.2909577 
C     0.0506883    3.4046000   -1.7876348 
C    -0.2220193    4.1918011   -0.6163203 
