60 

C     1.2975191    4.4157556   -0.3808034 
C    -0.1090187    4.5641884   -0.1144406 
C    -0.3206334    4.1836945    1.2355427 
C     1.9297392    3.7741595    0.7861842 
C     0.9592968    3.6770641    1.7870835 
C     2.5985935    2.5786116    0.3598216 
C     1.4413355    3.5181934   -1.4528511 
C     2.3432418    2.4535498   -1.0813021 
C    -0.8383073    3.8421694   -1.1476461 
C     0.1339268    3.1664641   -1.9974998 
C    -1.9706987    3.1127096   -0.7922133 
C    -1.3317893    3.2533796    1.5967244 
C    -2.2672448    2.8571858    0.6245935 
C     0.6942613    2.4207715    2.4106053 
C    -0.7314402    2.1811272    2.4062597 
C     2.5306435    1.3908277    1.1217739 
C     1.5524017    1.3057109    2.2046986 
C     2.9267514    0.1640871    0.4480181 
C     2.2353623    1.2058920   -1.6917337 
C     2.8596117    0.0752873   -1.0004321 
C    -0.0790110    1.8614995   -2.4889392 
C     1.0867121    0.9652927   -2.5706295 
C    -2.3142781    1.9064365   -1.4972585 
C    -1.4009708    1.2409976   -2.3554836 
C    -2.8991054    1.5850447    0.7361912 
C    -3.1388492    1.1039242   -0.6061145 
C    -1.2715226    0.8739189    2.4584462 
C    -2.5262547    0.6257351    1.7509128 
C     1.0486494    0.0117470    2.5890058 
C    -0.3676874   -0.2370230    2.7336718 
C     2.8520889   -1.0233991    1.1949840 
C     1.9217845   -1.0928767    2.3215244 
C     2.8685621   -2.3332768    0.5718522 
C     2.7583296   -1.1995980   -1.6002098 
C     2.7385738   -2.4291081   -0.8161937 
C     0.8875971   -0.3524390   -2.9847110 
C     1.8395226   -1.3599899   -2.6798899 
C    -1.5660536   -0.2150028   -2.5612691 
C    -0.4471419   -0.9722056   -2.9698028 
C    -3.3641562   -0.2334281   -0.8346830 
C    -2.5936602   -0.9371130   -1.8688264 
C    -2.9283348   -0.7145682    1.5322349 
C    -3.5108427   -1.0899466    0.2819166 
C    -0.8585885   -1.6223135    2.6051210 
C    -2.1112233   -1.8292664    1.9774139 
C     1.4855636   -2.4143852    2.4733447 
C     2.0943443   -3.2163207    1.4076721 
C     0.0919865   -2.7149899    2.5294567 
C     1.1133220   -4.0508921    0.8826487 
C    -0.1201617   -3.8266991    1.6306027 
C     1.6958057   -3.3084538   -1.3816840 
C     1.1384266   -2.5953628   -2.4795258 
C    -0.2702632   -2.3551961   -2.6003518 
C     0.8150366   -4.0155309   -0.5300563 
C    -2.3911784   -2.2820302   -1.4129303 
C    -2.9787173   -2.3700811   -0.0875301 
C    -2.2555526   -2.9136429    0.9834910 
C    -1.1720149   -3.7669805    0.7017377 
C    -1.1801148   -3.0028788   -1.6907969 
C    -0.6241744   -3.8404265   -0.6677254 
