60 

C     0.6130285   -5.1500871   -0.2374300 
C     1.5934768   -4.4773003   -0.9879961 
C     2.3598272   -3.5758079   -0.1611704 
C     0.7161460   -4.5771904    1.1200222 
C     1.7753001   -3.5588704    1.1505736 
C    -0.5483846   -4.1703235    1.5370516 
C    -0.6659067   -4.7060539   -0.7484472 
C    -1.4541194   -4.2909096    0.3504974 
C     0.9788583   -3.6324159   -1.9975190 
C    -0.4338145   -3.7033676   -1.8327874 
C     2.5468461   -2.3347409   -0.8698981 
C     1.6203458   -2.3472710   -1.9942869 
C     2.6960450   -1.1591630   -0.1481851 
C     1.5735014   -2.2893029    1.7836350 
C     2.3409829   -1.1701808    1.2614060 
C    -0.7774639   -2.8859806    2.1080666 
C     0.2698940   -1.9479404    2.3682930 
C    -2.2093168   -3.1252945    0.2902203 
C    -1.9690802   -2.3374720    1.5053888 
C    -1.1942806   -2.4971772   -1.9014284 
C    -2.2864868   -2.3518433   -0.9393964 
C     0.8869097   -1.1747021   -2.2638856 
C    -0.5559411   -1.2348140   -2.3280292 
C     2.4762550    0.0879868   -0.8597525 
C     1.5110554    0.0878211   -1.9023622 
C     2.7734269    1.3280332   -0.1733303 
C     2.1407572    0.0880944    1.8358009 
C     2.6231805    1.3070954    1.2439419 
C    -0.1105780   -0.5518720    2.5592895 
C     0.9328001    0.4037165    2.5576599 
C    -2.3286942   -0.9861374    1.5905650 
C    -1.4409731   -0.0374452    2.2496584 
C    -2.8892513   -1.1187887   -0.8039069 
C    -3.1589930   -0.5344375    0.5130763 
C    -1.2810897    0.0260613   -2.2751291 
C    -2.5854199   -0.0063806   -1.6845770 
C     0.8489979    1.3365515   -2.2513309 
C    -0.5995607    1.3292433   -2.3605548 
C     2.5302356    2.5348969   -0.8651359 
C     1.5372915    2.5350671   -1.9528500 
C     2.3290640    3.7497549   -0.1397783 
C     1.9189276    2.4089176    1.8580682 
C     0.7427881    1.8228168    2.5002476 
C     1.8589585    3.6532629    1.2320607 
C    -1.6360183    1.3975392    2.0435833 
C    -0.5466081    2.3674518    2.2551165 
C    -3.3413682    0.8270138    0.3348851 
C    -3.1013861    1.1632517   -1.0786896 
C    -2.6514101    1.7940492    1.1050452 
C    -1.2902609    2.5661797   -1.9726266 
C    -2.4649280    2.3925644   -1.1509581 
C    -2.4198279    2.9339327    0.2223338 
C     0.8615059    3.8008015   -1.9251100 
C     1.4448303    4.6133447   -0.8887276 
C    -0.5658514    3.7745699   -1.7373919 
C     0.5935068    4.3608348    1.2660179 
C    -0.5920614    3.6824298    1.6457284 
C    -1.5336426    3.9220837    0.5280755 
C     0.3920999    5.0341745   -0.0319476 
C    -0.8541255    4.6037295   -0.5516894 
