60 

C    -3.4606911   -1.7782698   -0.0487874 
C    -2.7105584   -2.8633447    0.4081597 
C    -1.9347869   -3.4125921   -0.7258332 
C    -3.0597309   -1.5433316   -1.4303147 
C    -2.0567516   -2.4826327   -1.8107658 
C    -2.9576412   -0.1470755   -1.6534140 
C    -3.4367176   -0.5344534    0.6246832 
C    -3.4306899    0.4834098   -0.4292869 
C    -2.6169681   -0.3319408    1.7804268 
C    -1.8534427   -2.7188104    1.5150326 
C    -1.7631860   -1.4555837    2.2202751 
C    -0.6830323   -3.8202368   -0.2509211 
C    -0.6404782   -3.4954841    1.1866689 
C     0.4549015   -3.5615047   -1.0383598 
C    -0.8886830   -1.9829506   -2.4790648 
C     0.3301678   -2.6757862   -2.1977923 
C    -1.8663731    0.4170738   -2.3695424 
C    -0.8369509   -0.5383109   -2.8520450 
C    -1.5620567    1.8399224   -2.1275274 
C    -3.0923079    1.7654615   -0.1637101 
C    -2.3339841    2.5329679   -1.1282205 
C    -2.2357166    1.0547895    2.0798573 
C    -2.6660979    2.1273768    1.1916045 
C    -1.0394418    1.2977814    2.7990688 
C    -0.5033801   -1.1626865    2.8797863 
C    -0.1619454    0.1945473    3.1535707 
C     0.5543183   -3.2033149    1.7773040 
C     0.6136281   -2.0872140    2.7320394 
C     1.7197087   -3.2945477   -0.4163564 
C     1.8013512   -3.2158363    0.9940299 
C     1.5932736   -2.0206025   -2.3607619 
C     2.4372774   -2.3184375   -1.2210186 
C     0.4148958   -0.0044925   -3.1834752 
C     1.6377685   -0.7666956   -2.9678814 
C    -0.2185662    2.3426625   -2.3977131 
C     0.7230213    1.4248621   -2.9638931 
C     0.3371507    3.3961738   -1.5772744 
C    -1.7733064    3.6097133   -0.3787839 
C    -1.9474254    3.3214138    1.0683597 
C    -0.4706077    4.0265501   -0.5843230 
C    -0.2225884    2.4728253    2.5509122 
C    -0.6704116    3.4903642    1.6964642 
C     0.2374718    3.9833880    0.7040627 
C     1.1830626    0.6723552    3.0101910 
C     1.1468186    2.0100011    2.4647338 
C     1.9240051   -1.6027725    2.6809360 
C     2.6423048   -2.2433357    1.5767973 
C     2.2128372   -0.2070520    2.6623636 
C     3.2007050   -1.2661686   -0.6092644 
C     3.2532890   -1.2134544    0.8197352 
C     3.0305478    0.0632462    1.5174932 
C     2.6187614    0.1582931   -2.5233586 
C     2.0791302    1.5050020   -2.6105821 
C     3.2716086   -0.0029405   -1.2881640 
C     1.6433710    3.2013349   -0.9613659 
C     1.4941380    3.3762141    0.4801011 
C     1.9987178    2.3598148    1.3734445 
C     2.8974471    1.3140203    0.8247205 
C     2.4932974    2.2296742   -1.4543698 
C     3.1495422    1.2806195   -0.5686510 
