60 

C     1.3705394    3.9013416    0.5725743 
C     0.0107550    4.0088203    0.7185978 
C    -0.6252841    3.8573801   -0.6093657 
C     1.6389367    3.7232192   -0.8803113 
C     0.3787403    3.4825433   -1.5492171 
C     2.6563089    2.8107162   -0.9848499 
C     2.0969518    2.8892284    1.2982017 
C     3.0394652    2.3488172    0.3685595 
C     1.3990302    1.9758146    2.1648065 
C    -0.7185691    3.1994028    1.6428558 
C    -0.0485232    2.1687465    2.3813779 
C    -1.8216488    3.1507128   -0.4339934 
C    -1.9921728    2.9129959    1.0099814 
C    -2.1810108    2.1357662   -1.3823721 
C     0.1836340    2.2871086   -2.3371041 
C    -1.1626292    1.7085614   -2.3491806 
C     2.5499192    1.6641458   -1.8312711 
C     1.3382180    1.3897929   -2.5469367 
C     3.3255744    0.9858321    0.2872997 
C     3.2121564    0.5899684   -1.1228830 
C     1.9492940    0.6220782    2.2869204 
C     2.8870298    0.0868135    1.3087820 
C     1.1735193   -0.3413689    3.0100773 
C    -0.8743209    1.0198178    2.7854048 
C    -0.2391158   -0.1823071    3.1697385 
C    -2.7579871    1.8405868    1.4192839 
C    -2.2162283    0.8757989    2.3392592 
C    -3.1744812    1.1927004   -0.9311375 
C    -3.4981954    1.1194357    0.4327990 
C    -3.2235095   -0.1751498   -1.4394614 
C    -1.3276048    0.4060907   -2.9139532 
C    -2.4173905   -0.5038788   -2.5065207 
C     1.1181618   -0.0036841   -2.9344520 
C    -0.2097422   -0.4106189   -3.2731440 
C     2.9467622   -0.7174518   -1.4335829 
C     1.9858816   -1.0337580   -2.4474204 
C     2.8797370   -1.3489444    0.9758019 
C     2.9106986   -1.7301922   -0.3960409 
C     1.4406505   -1.7364251    2.9154092 
C     2.2230631   -2.2699104    1.8712939 
C    -0.8667511   -1.5068836    3.0020449 
C     0.1666886   -2.4644853    2.9908134 
C    -2.7426554   -0.4505653    1.9588124 
C    -3.5457641   -0.2868699    0.8191367 
C    -3.3772151   -1.1077537   -0.3243002 
C    -1.9873443   -1.6494932    2.1291911 
C    -2.5939360   -2.3076076   -0.2413792 
C    -1.9548650   -2.6465086    1.0381497 
C    -1.9455573   -1.8409185   -2.5891054 
C    -0.6048559   -1.7913794   -3.1190279 
C    -1.9630870   -2.7173140   -1.4679991 
C     1.5081122   -2.3775459   -2.1408460 
C     2.0930943   -2.8144447   -0.9052758 
C     0.1919036   -2.7492592   -2.4680822 
C    -0.6618433   -3.3849807   -1.4499187 
C     1.5041231   -3.4184940    1.3594827 
C     0.1791979   -3.4538916    2.0069023 
C    -0.8284307   -3.5396900    1.0079313 
C     1.3274201   -3.6049453   -0.0097244 
C    -0.1248485   -3.7875164   -0.2526319 
