60 

C    -1.3711494   -3.6504148    1.7626400 
C     0.0408229   -3.6587947    1.7912639 
C     0.5109532   -2.5070784    2.5287005 
C    -1.8171299   -2.4578786    2.3993335 
C    -0.6791039   -1.7338631    2.8979800 
C    -2.7061825   -1.7615893    1.5273500 
C    -1.7960909   -3.5674783    0.3754847 
C    -2.6792342   -2.4489752    0.2377830 
C     0.5025459   -3.8336355    0.4277903 
C    -0.6644743   -3.6556912   -0.4781805 
C     1.7182495   -3.3166770    0.0825363 
C     1.6946942   -1.8413868    2.1225212 
C     2.4262272   -2.4362217    1.0203603 
C     1.8192170   -0.4064873    2.3605301 
C    -0.6579971   -0.3269936    2.8881391 
C     0.6579971    0.3269936    2.8881391 
C    -2.7918076   -0.3542111    1.5886684 
C    -1.8192170    0.4064873    2.3605301 
C    -3.3800365    0.2449489    0.4251483 
C    -2.6882894   -1.7040474   -0.9702064 
C    -3.2612655   -0.4045141   -0.8626330 
C    -0.5445199   -2.8581353   -1.6649039 
C    -1.6610964   -1.9615393   -1.9912138 
C     1.9367331   -2.8089620   -1.2722395 
C     0.8150136   -2.5353640   -2.1347886 
C     3.2512777   -1.6348350    0.2206155 
C     3.0135596   -1.9038068   -1.1957511 
C     2.7918076    0.3542111    1.5886684 
C     3.3800365   -0.2449489    0.4251483 
C     2.7061825    1.7615893    1.5273500 
C     0.6791039    1.7338631    2.8979800 
C     1.8171299    2.4578786    2.3993335 
C    -1.6946942    1.8413868    2.1225212 
C    -0.5109532    2.5070784    2.5287005 
C    -3.2512777    1.6348350    0.2206155 
C    -2.4262272    2.4362217    1.0203603 
C    -3.0029659    0.6417697   -1.8515742 
C    -3.0135596    1.9038068   -1.1957511 
C    -1.4336236   -0.9196770   -2.9422285 
C    -2.0380263    0.4083861   -2.8097026 
C     0.9875635   -1.4186246   -3.0143876 
C    -0.1437949   -0.7180279   -3.4690354 
C     3.0029659   -0.6417697   -1.8515742 
C     3.2612655    0.4045141   -0.8626330 
C     2.0380263   -0.4083861   -2.8097026 
C     2.6792342    2.4489752    0.2377830 
C     2.6882894    1.7040474   -0.9702064 
C     1.3711494    3.6504148    1.7626400 
C    -0.0408229    3.6587947    1.7912639 
C     1.7960909    3.5674783    0.3754847 
C    -1.7182495    3.3166770    0.0825363 
C    -1.9367331    2.8089620   -1.2722395 
C    -0.5025459    3.8336355    0.4277903 
C     0.6644743    3.6556912   -0.4781805 
C    -0.9875635    1.4186246   -3.0143876 
C     0.1437949    0.7180279   -3.4690354 
C     1.4336236    0.9196770   -2.9422285 
C     1.6610964    1.9615393   -1.9912138 
C    -0.8150136    2.5353640   -2.1347886 
C     0.5445199    2.8581353   -1.6649039 
