60 

C    -0.5893191    4.6946232    0.3544664 
C    -1.6639927    3.9490782    0.9802617 
C    -1.1657762    3.3379756    2.1521027 
C     0.6247093    4.3261598    1.0261133 
C     0.2956014    3.5561172    2.1787763 
C     1.5200095    3.7179634    0.0701975 
C    -0.4847552    4.2064477   -0.9821056 
C     0.8392176    3.6928357   -1.2276543 
C    -2.3060888    3.1016980    0.0004174 
C    -1.5960193    3.3328319   -1.2707567 
C    -2.7076593    1.7827791    0.3271836 
C    -1.4130087    1.9735724    2.4146254 
C    -2.2988389    1.2046109    1.6148503 
C     0.9096436    2.3175888    2.4447002 
C    -0.1420648    1.3472202    2.7480358 
C     2.3328438    2.6143422    0.4408263 
C     2.0317119    1.8548237    1.6711272 
C     2.8749112    1.8678808   -0.6551428 
C     1.0155808    2.5845596   -2.1217383 
C     2.1364994    1.7575887   -1.9130709 
C    -1.4307566    2.2853365   -2.1817715 
C    -0.1307803    1.9235398   -2.6831506 
C    -2.8509101    0.8402271   -0.7843080 
C    -2.1697426    1.0719013   -2.0037259 
C    -3.1235032   -0.5057283   -0.4972317 
C    -2.2404710   -0.2309072    1.7835862 
C    -3.0102581   -1.0086557    0.8709341 
C     0.0533123   -0.0326058    2.6769641 
C    -1.0975263   -0.8895347    2.3981082 
C     2.3522487    0.4504932    1.7613839 
C     1.4052684   -0.4911153    2.3905148 
C     3.4615251    0.6321883   -0.4228208 
C     3.2354470   -0.0915762    0.7653248 
C     2.1995772    0.3699414   -2.3714954 
C     3.1367512   -0.2792260   -1.5430320 
C    -0.1336184    0.4906342   -2.9336782 
C    -1.4289620   -0.0189734   -2.6157416 
C     1.0109390   -0.3398168   -2.7543673 
C    -2.7607339   -1.5822344   -1.3897202 
C    -1.6563458   -1.3720030   -2.2904120 
C    -2.8812622   -2.3973071    0.8136270 
C    -2.8119008   -2.7760150   -0.6262720 
C    -0.8964118   -2.3306660    2.2448463 
C    -1.8761128   -3.1049005    1.5048717 
C     1.5701300   -1.8754764    2.2113303 
C     0.4628067   -2.8071701    2.2317239 
C     3.1620797   -1.4901295    0.3901066 
C     2.9549377   -1.5716709   -1.0759402 
C     2.5098621   -2.3724874    1.2079465 
C     0.8336296   -1.7527484   -2.3740191 
C    -0.5253896   -2.3162527   -2.2921436 
C     1.9000881   -2.3980089   -1.5979322 
C    -1.9046014   -3.7879610   -0.7868663 
C    -1.4342116   -4.1533742    0.5702014 
C    -0.7198287   -3.5792275   -1.6212833 
C     0.8275320   -3.9485508    1.3855021 
C     1.9487774   -3.5405029    0.6208584 
C     1.6038162   -3.5561399   -0.8070066 
C    -0.1127728   -4.5023303    0.4798158 
C     0.3541662   -4.1816629   -0.9079430 
