60 

C    -1.2201924   -4.0656663   -0.7813519 
C    -0.6331297   -4.1715507    0.4931007 
C     0.8007241   -4.0198280    0.3184080 
C    -0.1649105   -3.6575421   -1.7516346 
C     1.0692532   -3.5854059   -1.0299262 
C    -0.6459585   -2.5371438   -2.4677035 
C    -2.3227144   -3.2410893   -0.9478566 
C    -2.0396025   -2.3781188   -2.1133441 
C    -2.7869161   -2.3920101    0.1048292 
C    -1.0494077   -3.3210660    1.5753426 
C    -2.1183523   -2.3642919    1.3837370 
C     1.3233797   -3.3125458    1.4311144 
C     0.1780165   -2.8989176    2.2467862 
C     2.3663430   -2.4193889    1.2047221 
C     1.9637356   -2.4977792   -1.2588327 
C     2.7682376   -2.0867697   -0.1462386 
C     0.1763360   -1.3566921   -2.6684819 
C     1.5657170   -1.4460783   -2.2225232 
C    -0.4611361   -0.0541213   -2.7667792 
C    -2.5497577   -1.1258944   -1.8712625 
C    -3.1288335   -1.1308356   -0.5143739 
C    -1.8644892    0.0449700   -2.3556859 
C    -3.2648630    0.0688576    0.1779877 
C    -2.0525249   -1.0635021    2.0755131 
C    -2.7747675    0.1184360    1.5632862 
C     0.2337826   -1.6771468    2.8838523 
C    -0.9172232   -0.8043560    2.8889021 
C     2.4823020   -1.1922370    1.9873159 
C     1.4258626   -0.8336523    2.8145265 
C     3.3635275   -0.7834536   -0.1009966 
C     3.1382042   -0.1808186    1.2085348 
C     2.3218255   -0.2655180   -2.2611210 
C     3.3308479    0.0208709   -1.2372471 
C     0.3396368    1.1715003   -2.7468058 
C     1.7553286    1.0040065   -2.6555193 
C    -0.2408942    2.4505615   -2.2992299 
C    -2.3801471    1.2370697   -1.8609448 
C    -3.2174554    1.2489971   -0.6513495 
C    -1.6214894    2.4804862   -1.9096720 
C    -3.0364078    2.5084818   -0.0732907 
C    -2.0907350    3.3089528   -0.8706645 
C    -2.4420030    1.4058193    2.0670786 
C    -2.6564003    2.5979003    1.2812232 
C    -0.4136807    0.5391434    3.0835823 
C     1.0200398    0.5534170    2.8946390 
C    -1.1792671    1.6208219    2.7329467 
C     2.8204382    1.2076399    1.3332813 
C     1.6678243    1.5911263    2.1724141 
C     3.4302310    1.4136284   -1.0678247 
C     2.5665365    2.0397952   -2.0649789 
C     3.1521932    2.0326332    0.1999055 
C     0.6007736    3.4005686   -1.6068233 
C     1.9952617    3.1687439   -1.5085804 
C     2.3667158    3.1941699   -0.0798900 
C    -1.1606576    3.9113335    0.0403630 
C    -1.5064278    3.4611737    1.3723539 
C    -0.5293911    2.8112469    2.1890068 
C     0.8540237    2.7811380    1.8286594 
C     0.1759478    3.9345671   -0.3141626 
C     1.2166896    3.5353631    0.6516838 
