60 

C    -0.1515284    5.6339046    0.6587498 
C     1.1053815    5.4705589    0.0757675 
C     0.9706765    5.1577997   -1.3297995 
C    -1.1730161    5.2489763   -0.3756272 
C    -0.4802355    4.8962164   -1.5587775 
C    -2.0288646    4.2934120    0.2299537 
C    -0.2777864    4.6960915    1.7580212 
C    -1.4767644    3.9983024    1.5904338 
C     1.7943947    4.3524027    0.7538477 
C     0.9519249    3.8638176    1.8208016 
C     1.6237300    3.9345477   -1.5308164 
C     2.2232706    3.4442324   -0.2538655 
C    -0.6143247    3.5355205   -2.0448604 
C     0.7284041    2.9858704   -2.1659897 
C    -2.3198794    3.0430814   -0.3526009 
C    -1.6188266    2.6217494   -1.5500651 
C    -1.5894303    2.6057077    1.8354540 
C    -2.3185748    2.0368978    0.7294020 
C     0.8551139    2.4655185    2.0272456 
C    -0.4639414    1.8314971    2.2752012 
C     2.2362000    2.0668696   -0.0067283 
C     1.7423626    1.5866248    1.2737390 
C     0.9717652    1.6156733   -2.0608106 
C     1.9865265    1.1405398   -1.1250485 
C    -1.4031795    1.2032185   -1.7407201 
C    -0.1354323    0.7057241   -2.1858160 
C    -2.2778444    0.6806533    0.4755534 
C    -2.1051745    0.2293110   -0.8983608 
C    -0.5917011    0.4223476    2.2049521 
C    -1.6774378   -0.1841761    1.4707641 
C     1.6774378    0.1841761    1.4707641 
C     0.5917011   -0.4223476    2.2049521 
C     2.1051745   -0.2293110   -0.8983608 
C     2.2778444   -0.6806533    0.4755534 
C     0.1354323   -0.7057241   -2.1858160 
C     1.4031795   -1.2032185   -1.7407201 
C    -1.9865265   -1.1405398   -1.1250485 
C    -0.9717652   -1.6156733   -2.0608106 
C    -1.7423626   -1.5866248    1.2737390 
C    -2.2362000   -2.0668696   -0.0067283 
C     0.4639414   -1.8314971    2.2752012 
C    -0.8551139   -2.4655185    2.0272456 
C     2.3185748   -2.0368978    0.7294020 
C     1.5894303   -2.6057077    1.8354540 
C     1.6188266   -2.6217494   -1.5500651 
C     2.3198794   -3.0430814   -0.3526009 
C    -0.7284041   -2.9858704   -2.1659897 
C     0.6143247   -3.5355205   -2.0448604 
C    -2.2232706   -3.4442324   -0.2538655 
C    -1.6237300   -3.9345477   -1.5308164 
C    -0.9519249   -3.8638176    1.8208016 
C    -1.7943947   -4.3524027    0.7538477 
C     1.4767644   -3.9983024    1.5904338 
C     2.0288646   -4.2934120    0.2299537 
C     0.2777864   -4.6960915    1.7580212 
C     0.4802355   -4.8962164   -1.5587775 
C    -0.9706765   -5.1577997   -1.3297995 
C    -1.1053815   -5.4705589    0.0757675 
C     1.1730161   -5.2489763   -0.3756272 
C     0.1515284   -5.6339046    0.6587498 
