60 

C    -0.2696148   -4.3184336    0.2454505 
C     0.2238949   -3.8732721    1.4779117 
C     1.5998576   -3.4508250    1.2711623 
C     0.7315265   -3.9510486   -0.7953016 
C     1.8695615   -3.4080304   -0.1553550 
C     0.0503183   -3.2358891   -1.8244134 
C    -1.5156743   -3.8716672   -0.1914292 
C    -1.3544743   -3.3069549   -1.5561700 
C    -2.2802922   -2.9537523    0.5721825 
C    -0.4524022   -2.8230263    2.2052752 
C    -1.7227129   -2.3364378    1.7674605 
C     1.8291804   -2.3082132    2.0461416 
C     0.5491110   -1.8625995    2.6240565 
C     2.7264888   -1.3572413    1.5622165 
C     2.5179964   -2.2635718   -0.7287755 
C     3.1717803   -1.3835078    0.1871681 
C     0.6011482   -2.0153483   -2.3543293 
C     1.9476539   -1.6519820   -1.9345784 
C    -0.3425102   -0.9589353   -2.7655765 
C    -2.1739952   -2.1814492   -1.6669665 
C    -2.9082240   -2.0848214   -0.4058029 
C    -1.7221870   -0.9714317   -2.3049476 
C    -3.4175459   -0.8910607   -0.0334801 
C    -2.0579434   -0.9408777    2.0629519 
C    -3.1604904   -0.3725584    1.3171739 
C     0.2897436   -0.4867311    2.7901692 
C    -1.0830874   -0.0084634    2.5996406 
C     2.6295520    0.0020319    2.0051622 
C     1.4269929    0.4498308    2.6599608 
C     3.5229296   -0.0227498   -0.1432661 
C     3.3032438    0.8217990    1.0298651 
C     2.4223883   -0.3473786   -2.2905930 
C     3.2420331    0.4775689   -1.4020289 
C     0.1987478    0.3052963   -3.1140294 
C     1.5908854    0.5258233   -3.0123133 
C    -0.4560758    1.5514457   -2.7850489 
C    -2.4158644    0.2805264   -1.9904451 
C    -3.4069004    0.2362464   -0.9506342 
C    -1.7418454    1.5815240   -2.2150451 
C    -3.4138251    0.9928088    1.2748991 
C    -3.6435107    1.3710474   -0.1379526 
C    -1.3194457    1.4518296    2.4825939 
C    -2.5219669    1.9487832    1.8426033 
C     1.1622043    1.8368155    2.5702800 
C    -0.2034174    2.3262948    2.4445937 
C     2.9511455    2.1604857    0.8817579 
C     1.9946582    2.6848361    1.7847969 
C     2.8194881    1.8819374   -1.5618646 
C     1.8230585    1.8985276   -2.5802120 
C     0.5785646    2.5259557   -2.4021792 
C     2.6619145    2.7145813   -0.4472124 
C    -0.1712851    3.4927297    1.5453172 
C     1.1452812    3.6132590    1.0721723 
C     0.3780429    3.4080232   -1.2789175 
C     1.4675926    3.5377643   -0.3259983 
C    -2.0307174    2.7235293   -1.3718549 
C    -3.0074299    2.5843129   -0.3484663 
C    -2.4496749    3.0581678    0.9235282 
C    -0.9518742    3.5224238   -0.8064999 
C    -1.2319970    3.6720523    0.6351962 
