60 

C    -1.4400837    4.5730261    0.0000000 
C    -0.5902686    4.4548754   -1.1480868 
C     0.7925264    4.4292853   -0.7212821 
C    -0.5902686    4.4548754    1.1480868 
C     0.7925264    4.4292853    0.7212821 
C    -1.0640768    3.3658888    1.9594230 
C    -2.2744195    3.3898848    0.0000000 
C    -2.1293853    2.6634419    1.2248155 
C    -1.0640768    3.3658888   -1.9594230 
C    -2.1293853    2.6634419   -1.2248155 
C    -0.1324619    2.5776551   -2.6273636 
C     1.6801124    3.3932545   -1.1567627 
C     1.2977277    2.5858964   -2.2298016 
C     1.6801124    3.3932545    1.1567627 
C     2.2546139    2.7116880    0.0000000 
C    -0.1324619    2.5776551    2.6273636 
C     1.2977277    2.5858964    2.2298016 
C    -0.4764688    1.2411410    2.9565811 
C    -2.2287933    1.2443388    1.2431566 
C    -1.5506898    0.5401886    2.3232989 
C    -2.2287933    1.2443388   -1.2431566 
C    -2.4336075    0.5073457    0.0000000 
C    -0.4764688    1.2411410   -2.9565811 
C    -1.5506898    0.5401886   -2.3232989 
C     1.7706039    1.2482829   -2.3264302 
C     0.7753566    0.5307043   -3.0954018 
C     2.5216529    1.3001994    0.0000000 
C     2.3895106    0.5422491   -1.2400242 
C     1.7706039    1.2482829    2.3264302 
C     0.7753566    0.5307043    3.0954018 
C     2.3895106    0.5422491    1.2400242 
C     0.7882475   -0.8080524    3.1652859 
C    -1.5438621   -0.8979440    2.3575916 
C    -0.4731534   -1.5292513    3.1048414 
C    -2.3704032   -0.9441723    0.0000000 
C    -2.1408169   -1.6566753    1.2660706 
C    -1.5438621   -0.8979440   -2.3575916 
C    -2.1408169   -1.6566753   -1.2660706 
C     0.7882475   -0.8080524   -3.1652859 
C    -0.4731534   -1.5292513   -3.1048414 
C     2.3467475   -0.9298836   -1.2388413 
C     1.7730944   -1.5672885   -2.3965931 
C     2.3467475   -0.9298836    1.2388413 
C     1.7730944   -1.5672885    2.3965931 
C     2.3587705   -1.7104342    0.0000000 
C    -0.1233698   -2.8640503    2.8838371 
C     1.2886753   -2.8787822    2.3596294 
C    -1.9253945   -3.0854437    1.2373868 
C    -0.8833368   -3.6804582    2.0838348 
C    -1.9253945   -3.0854437   -1.2373868 
C    -1.8807562   -3.7705708    0.0000000 
C    -0.1233698   -2.8640503   -2.8838371 
C     1.2886753   -2.8787822   -2.3596294 
C    -0.8833368   -3.6804582   -2.0838348 
C     1.8868277   -3.1325554    0.0000000 
C     1.3348780   -3.6933648    1.2169891 
C     0.0341400   -4.3840939    1.1919192 
C    -0.6416799   -4.6082395    0.0000000 
C     1.3348780   -3.6933648   -1.2169891 
C     0.0341400   -4.3840939   -1.1919192 
