60 

C     0.0216461   -5.1331101    0.4646796 
C    -0.6139502   -4.5419671    1.5706486 
C    -1.7273556   -3.7556628    1.1404421 
C    -0.7194325   -4.6546880   -0.7373076 
C    -1.7992342   -3.7807545   -0.3152591 
C     0.2032985   -4.1482904   -1.6557692 
C     1.3279752   -4.5455870    0.3815882 
C     1.5168756   -4.0861535   -0.9485575 
C     0.2958706   -3.6098635    2.2466738 
C     1.4928350   -3.5515563    1.4853593 
C    -1.7048281   -2.4945762    1.8374635 
C    -0.4109249   -2.3916361    2.5118515 
C    -2.2522582   -1.3629358    1.2467938 
C    -2.0390544   -2.5475086   -0.9740552 
C    -2.6168508   -1.4583547   -0.1715547 
C     0.0079595   -2.8883709   -2.2791755 
C    -1.1731563   -2.1176715   -2.0760141 
C     2.0652521   -2.8295913   -1.1984458 
C     1.2481222   -2.1338075   -2.1998083 
C     2.0910374   -2.2769768    1.2391516 
C     2.5778824   -2.0139933   -0.1147213 
C     0.2514063   -1.1537931    2.4829911 
C     1.6006503   -1.1007147    1.9634904 
C    -1.8644224   -0.0628776    1.7681825 
C    -0.5755420    0.0487872    2.3868572 
C    -2.4816197    1.1173621    1.1988103 
C    -2.8946623   -0.2752727   -0.8187985 
C    -3.0820421    0.9854221   -0.1025204 
C    -1.1396680   -0.7157437   -2.4666256 
C    -2.2743030    0.0475683   -2.1021091 
C     1.3074814   -0.7442045   -2.3857725 
C     0.1053243    0.0146820   -2.6807824 
C     2.8558224   -0.7056723   -0.4687807 
C     2.3670333   -0.0767936   -1.7004260 
C     2.1324270    0.2124366    1.6720247 
C     2.9172502    0.3416409    0.5037143 
C     0.0583744    1.3381719    2.5125130 
C     1.4814567    1.4315349    2.1860535 
C    -1.9880851    2.3857525    1.5681330 
C    -0.7637731    2.4971321    2.3549422 
C    -2.0293486    3.5282995    0.6527211 
C    -2.9154754    2.0312068   -1.0319687 
C    -2.2708547    1.4404354   -2.2114979 
C    -2.2944507    3.2588447   -0.7168618 
C     0.1465517    1.4755843   -2.5865557 
C    -1.0922184    2.1843893   -2.4503526 
C    -1.1950913    3.4364939   -1.6787823 
C     2.3953602    1.3194373   -1.5465613 
C     2.9346675    1.5865680   -0.2130735 
C     1.3458976    2.1623041   -2.0651591 
C     1.9848535    2.6945272    1.7551128 
C     2.6470430    2.7471169    0.4420374 
C    -0.1868049    3.7712645    2.0993897 
C    -0.9487439    4.3866451    0.9797401 
C     1.1806762    3.8871861    1.8244981 
C    -0.0515839    4.1232629   -1.2994461 
C     1.2457329    3.4707487   -1.5036064 
C     2.0333177    3.8105365   -0.3251343 
C    -0.0259302    4.8049751   -0.0027068 
C     1.2915836    4.6178111    0.5523268 
