60 

C     3.5934719   -2.2982190   -0.4004935 
C     2.5565185   -3.0490044   -0.9296784 
C     1.8779623   -2.2630881   -1.9818729 
C     3.6149472   -1.0178117   -1.0710886 
C     2.5508440   -0.9751160   -2.0436468 
C     3.5917521    0.0001834   -0.1055480 
C     3.2356549   -2.0285996    0.9992025 
C     3.2611964   -0.6424508    1.1986648 
C     1.7449673   -3.5629428    0.1652609 
C     2.0630087   -2.7707103    1.3630331 
C     0.4569373   -3.8935091   -0.1047015 
C     0.4851311   -2.3879743   -2.1327035 
C    -0.1493100   -3.4705462   -1.3846147 
C    -0.3058433   -1.2001158   -2.4594452 
C     1.8191236    0.2130192   -2.2739052 
C     0.4154202    0.0697503   -2.6379826 
C     3.0573114    1.2611236   -0.4243508 
C     2.2384689    1.4517102   -1.6006612 
C     2.7800992    2.0686619    0.7256722 
C     2.2597129   -0.0335959    2.0115609 
C     2.1956893    1.3738422    1.8963442 
C     0.9818975   -2.1843515    2.0948446 
C     1.0871283   -0.7626641    2.4441569 
C    -0.5598691   -3.7919217    0.9281494 
C    -0.3410933   -2.8262167    1.9887421 
C    -1.5122456   -3.4671948   -1.1695367 
C    -1.8052955   -3.8442143    0.2424528 
C    -1.7216043   -1.1789204   -2.1249522 
C    -2.3302175   -2.3405889   -1.5177053 
C    -2.3598940    0.0954552   -1.8556264 
C    -0.3346971    1.2526131   -2.7254476 
C    -1.7336678    1.2489171   -2.3876082 
C     1.4414339    2.6763822   -1.7089960 
C     0.2022918    2.5802645   -2.4227845 
C     2.1720091    3.2942782    0.5851809 
C     1.5294716    3.6792791   -0.6487155 
C     1.0937592    2.1564577    2.3480991 
C     1.1910269    3.4341703    1.6774195 
C    -0.1223770    0.0281490    2.6688198 
C    -0.1585686    1.4973132    2.5053764 
C    -1.4856191   -2.0746528    2.4070376 
C    -1.3556466   -0.6408316    2.6420629 
C    -2.8856700   -3.0825881    0.6565891 
C    -3.2753208   -2.1752234   -0.4715518 
C    -2.7700233   -2.2805141    1.8025815 
C    -3.1633017    0.2696577   -0.6547448 
C    -2.5072843    0.0255740    2.0600057 
C    -3.5522948   -0.8937828    0.0592885 
C    -3.3093143   -0.9610812    1.4761074 
C    -1.3460285    2.1690323    1.9401833 
C    -2.9468795    1.4843037    0.1206367 
C    -2.4087591    1.3171202    1.4664227 
C    -2.0650538    2.5384945   -1.9236635 
C    -0.9195947    3.4127578   -2.0774204 
C    -2.5946973    2.6622593   -0.5893113 
C     0.3519896    4.4101976   -0.2540353 
C     0.0956362    4.0772542    1.1779251 
C    -1.2090569    3.4537607    1.2894679 
C    -0.8484783    4.2088279   -0.9159225 
C    -1.8671552    3.6876200    0.0574264 
