60 

C     1.1654566   -4.1413473   -0.1084302 
C     0.1293070   -4.1745419   -1.0008998 
C    -1.1483794   -4.1428383   -0.2531676 
C     0.5655315   -4.0476960    1.2611098 
C    -0.8399286   -3.8072474    1.1290840 
C     1.3616825   -3.1810858    1.9726493 
C     2.2125457   -3.1486812   -0.2166317 
C     2.4664802   -2.7205134    1.1040826 
C     2.1710617   -2.1238837   -1.2626343 
C     0.0535639   -3.1826581   -2.0711153 
C     1.0471863   -2.1368972   -2.1847095 
C    -2.0170014   -3.3718555   -0.9997937 
C    -1.2995802   -2.8284717   -2.1778026 
C    -2.7369020   -2.3047868   -0.4223924 
C    -1.4122080   -2.6144454    1.7081050 
C    -2.5088052   -1.9804589    0.9677727 
C     0.8300533   -2.0154944    2.5979914 
C    -0.5531233   -1.6994236    2.4948566 
C     2.7473782   -1.3812785    1.4258320 
C     1.8019043   -0.9501266    2.4317667 
C     2.8563621   -0.8615329   -0.9835453 
C     3.1701326   -0.4847719    0.4046811 
C     2.6602444    0.2092007   -1.8825411 
C     0.5945005   -0.8628733   -2.7524556 
C     1.5360994    0.1848314   -2.7728354 
C    -1.7308346   -1.4872209   -2.3589670 
C    -2.7461236   -1.2007839   -1.3767109 
C    -0.8191523   -0.4816302   -2.7563368 
C    -3.0485372    0.1186407   -1.0018591 
C    -2.9163712   -0.6969025    1.3336396 
C    -3.4489657    0.2644758    0.3696627 
C    -0.9095748   -0.2848576    2.7032032 
C    -2.2412539    0.0872738    2.3647475 
C     1.4832633    0.4113915    2.5636044 
C     0.0968690    0.7910700    2.7718343 
C     3.1908624    0.8674319    0.7906909 
C     2.4095289    1.3046517    1.9391668 
C     2.9068100    1.6212345   -1.5174261 
C     3.1814936    1.9505964   -0.1817899 
C     1.0954587    1.5350908   -2.9396132 
C     1.9737719    2.4386392   -2.2283041 
C    -1.2344087    0.9084548   -2.5529452 
C    -2.3740642    1.2198437   -1.6952341 
C    -0.2464107    1.9189415   -2.7632361 
C    -2.3950218    2.5105144   -1.0535795 
C    -3.4037231    1.5288967    0.9759612 
C    -2.6163622    1.4342629    2.2013467 
C    -2.9383547    2.6438330    0.2582477 
C    -0.2789796    2.1807538    2.4767712 
C    -1.6590706    2.4869132    2.1924769 
C    -1.9745738    3.3588595    1.0870555 
C     2.0258197    2.6416756    1.6934452 
C     2.5167875    3.0712633    0.4069543 
C     0.6892841    3.0710045    1.8821261 
C     1.1779054    3.4398378   -1.5993760 
C    -0.2137361    3.1617583   -1.9860700 
C    -1.2500158    3.4174405   -1.1213157 
C    -0.9647258    3.8800712    0.2540722 
C     1.4524553    3.7686909   -0.2474902 
C     0.3563885    3.8867610    0.7062708 
