60 

C    -0.8063334    4.0589660    1.6642113 
C     0.0836905    4.2935731    0.5936413 
C    -0.5793312    3.9933313   -0.6730271 
C    -1.9626949    3.4158344    1.1125274 
C    -1.8410407    3.3474582   -0.3345818 
C    -2.1826693    2.1980697    1.8118737 
C    -0.1675554    3.0882456    2.5326307 
C    -1.0363533    1.9781310    2.6964001 
C     1.3668954    3.6721183    0.8811849 
C     1.1576944    2.8152339    2.0649304 
C     2.1269980    3.2275380   -0.2000418 
C     0.2133322    3.5050247   -1.7164758 
C     1.6168435    3.3351740   -1.5328989 
C    -0.2747823    2.3610970   -2.4976384 
C    -2.2983823    2.1960716   -1.0342703 
C    -1.5326718    1.7797937   -2.2233314 
C    -2.7978168    1.1016212    1.1638910 
C    -2.9967224    1.1437162   -0.2812496 
C    -2.5993531   -0.1542060    1.7992766 
C    -0.5172562    0.6660551    2.8784873 
C    -1.4452799   -0.3792217    2.6361352 
C     1.6894346    1.4941436    2.1199775 
C     0.8957808    0.3960121    2.6827354 
C     2.8014004    1.9331315   -0.0847596 
C     2.6668415    1.1455999    1.0946426 
C     1.9713855    2.0974132   -2.1966735 
C     0.8495788    1.5013593   -2.8232276 
C     2.7809047    1.2791631   -1.3771006 
C     0.7432334    0.0684732   -2.9149907 
C    -1.6949238    0.4561553   -2.7322122 
C    -0.5654127   -0.4089750   -3.0728548 
C    -3.2456679   -0.1028602   -0.9212026 
C    -2.7065975   -0.3684442   -2.2121298 
C    -2.8867866   -1.3977077    1.1415522 
C    -3.2335917   -1.3782422   -0.2042269 
C    -1.0349967   -1.7515135    2.5155333 
C    -1.9954931   -2.4219253    1.6686878 
C     1.3270605   -0.9913202    2.5336159 
C     0.3519759   -2.1043589    2.5440285 
C     3.0450761   -0.1996727    0.9620835 
C     2.5635322   -1.2227449    1.8410594 
C     2.7663189   -0.1383386   -1.5048312 
C     1.7571718   -0.8128145   -2.3082159 
C     3.2810771   -0.8041077   -0.3617265 
C     1.4333203   -2.2143058   -2.0228103 
C    -0.9176376   -1.7723126   -2.7452522 
C    -2.2687687   -1.7449883   -2.2808414 
C    -2.6480369   -2.4032275   -1.0920514 
C     0.0304188   -2.6749654   -2.1854039 
C    -1.5698219   -3.4727403    0.8514157 
C    -1.7932589   -3.3844416   -0.5972936 
C    -0.5137073   -3.6400997   -1.2523990 
C     0.6799692   -3.3687361    1.9034895 
C    -0.2785082   -3.9951207    1.0703985 
C     0.3417389   -4.2114764   -0.2637303 
C     2.8203030   -2.4737913    1.1794905 
C     3.1345054   -2.1722913   -0.2356021 
C     2.2588195   -2.9257066   -1.0737249 
C     1.9509591   -3.5263257    1.2096992 
C     1.6851920   -3.9315217   -0.1968234 
