60 

C     5.0003042   -0.1555079    1.1105367 
C     4.4003366   -1.3695518    1.3712296 
C     3.8703590   -1.9652149    0.1349654 
C     4.8455724    0.0831796   -0.3480328 
C     4.0987927   -1.0455229   -0.9466234 
C     4.2898713    1.3445579   -0.4811753 
C     4.2174619    0.8586424    1.8312447 
C     3.8652151    1.8163638    0.8814989 
C     3.2938181   -1.2253902    2.3061647 
C     3.1091122    0.1914370    2.5382560 
C     2.5647747   -2.4241954    0.4145281 
C     2.2165353   -1.9778980    1.7836473 
C     1.5603190   -2.3850045   -0.5772475 
C     3.0422557   -0.8101836   -1.8703711 
C     1.8661132   -1.7050787   -1.8299308 
C     3.2199820    1.6020854   -1.3775868 
C     2.7415142    0.5816850   -2.2593903 
C     2.5465231    2.3133698    0.7444726 
C     2.2164170    2.3762886   -0.6711788 
C     1.7845699    0.7113968    2.4578985 
C     1.5083491    1.8834638    1.6227963 
C     0.8990562   -1.5683247    2.0226858 
C     0.6705152   -0.2393544    2.5202122 
C     0.1787167   -2.5186372   -0.1355255 
C    -0.1573081   -2.1458819    1.2167238 
C    -0.8774745   -2.4408945   -1.1148663 
C     0.7720728   -1.4332230   -2.6932281 
C    -0.5856701   -1.8531134   -2.3734397 
C     1.4985442    0.8597627   -2.8779050 
C     0.6872273   -0.1996259   -3.4003592 
C     0.8774745    2.4408945   -1.1148663 
C     0.5856701    1.8531134   -2.3734397 
C     0.1573081    2.1458819    1.2167238 
C    -0.1787167    2.5186372   -0.1355255 
C    -0.6705152    0.2393544    2.5202122 
C    -0.8990562    1.5683247    2.0226858 
C    -1.5083491   -1.8834638    1.6227963 
C    -1.7845699   -0.7113968    2.4578985 
C    -2.2164170   -2.3762886   -0.6711788 
C    -2.5465231   -2.3133698    0.7444726 
C    -3.2199820   -1.6020854   -1.3775868 
C    -1.4985442   -0.8597627   -2.8779050 
C    -0.6872273    0.1996259   -3.4003592 
C    -0.7720728    1.4332230   -2.6932281 
C    -2.7415142   -0.5816850   -2.2593903 
C    -1.5603190    2.3850045   -0.5772475 
C    -1.8661132    1.7050787   -1.8299308 
C    -3.0422557    0.8101836   -1.8703711 
C    -2.2165353    1.9778980    1.7836473 
C    -2.5647747    2.4241954    0.4145281 
C    -3.1091122   -0.1914370    2.5382560 
C    -3.2938181    1.2253902    2.3061647 
C    -3.8652151   -1.8163638    0.8814989 
C    -4.2898713   -1.3445579   -0.4811753 
C    -4.2174619   -0.8586424    1.8312447 
C    -4.0987927    1.0455229   -0.9466234 
C    -3.8703590    1.9652149    0.1349654 
C    -4.4003366    1.3695518    1.3712296 
C    -4.8455724   -0.0831796   -0.3480328 
C    -5.0003042    0.1555079    1.1105367 
