60 

C    -3.3890694   -2.6456882    0.5103313 
C    -2.2038296   -3.4382676    0.5489859 
C    -1.3513856   -3.0240784    1.6329319 
C    -3.2430587   -1.6408046    1.4854661 
C    -1.9595544   -1.8161107    2.1680175 
C    -3.4877955   -0.3608588    0.8969037 
C    -3.3790179   -1.9420249   -0.7734580 
C    -3.5597045   -0.5535212   -0.5461312 
C    -1.6227231   -3.4607402   -0.7694561 
C    -2.2416425   -2.3616155   -1.5277921 
C    -0.2841194   -3.6939324   -0.8768104 
C     0.0570600   -3.1784840    1.5201692 
C     0.5308749   -3.8390874    0.3237448 
C     0.9089476   -2.1617192    2.1469884 
C    -1.1689965   -0.6967673    2.5139200 
C     0.2831014   -0.9134057    2.6233649 
C    -2.8674187    0.7868330    1.4104181 
C    -1.7071878    0.6640661    2.2832065 
C    -2.9777900    1.9257345    0.5477580 
C    -2.9569596    0.3978029   -1.4152263 
C    -2.9456431    1.7128332   -0.9149934 
C    -1.4110712   -1.4175956   -2.2441509 
C    -1.8745477   -0.0355624   -2.3039716 
C     0.5166358   -2.9583067   -1.8624917 
C     0.0064823   -1.7192586   -2.4157010 
C     1.8613763   -3.6360258   -0.1044771 
C     1.8498397   -3.0727877   -1.4707419 
C     2.2953772   -2.1185751    1.7632065 
C     2.7512018   -2.8866653    0.6386537 
C     3.0115997   -0.8616172    1.7101147 
C     1.0901283    0.2457081    2.7374735 
C     2.4453772    0.2759676    2.2426792 
C    -0.8444034    1.8219505    2.3934327 
C     0.5532921    1.5806156    2.6099337 
C    -2.2987018    3.1006638    0.8300805 
C    -1.1943788    3.0804446    1.7599008 
C    -2.1290052    2.7566860   -1.4776312 
C    -1.8495981    3.7068739   -0.4277317 
C    -0.9516115    0.9605737   -2.7060609 
C    -1.0917639    2.3635001   -2.3382899 
C     0.9726750   -0.6423411   -2.6224777 
C     0.4491335    0.6601124   -2.8273611 
C     2.7785657   -1.9757651   -1.5221609 
C     3.4685989   -1.9652594   -0.2704639 
C     3.6942047   -0.7618837    0.4124219 
C     2.3567104   -0.7471016   -2.1184806 
C     3.6040948    0.4423655   -0.3092907 
C     2.9750456    0.4423018   -1.6070946 
C     2.6818525    1.5865531    1.6544765 
C     1.5594666    2.4186210    2.0010839 
C     3.2298883    1.6701294    0.3639669 
C    -0.1731757    3.8934877    1.1712908 
C    -0.5637214    4.1759563   -0.2238087 
C     1.1713738    3.4846362    1.1596990 
C     0.2476045    2.9174182   -2.1633089 
C     1.1896520    1.8698283   -2.4949057 
C     2.3888638    1.7489781   -1.8030192 
C     2.6086938    2.5517126   -0.6100949 
C     0.5237767    3.7876513   -1.0859840 
C     1.6663801    3.4958460   -0.2270543 
