60 

C    -0.0409366    5.1323767   -0.4151165 
C    -1.2321577    4.7859802    0.2048519 
C    -0.9566329    4.0934847    1.4839114 
C     1.0377389    4.6543078    0.4244601 
C     0.4575311    3.9193192    1.5982923 
C     1.9272444    3.9728027   -0.4089595 
C     0.0253188    4.3764727   -1.7036189 
C     1.2973299    3.7957651   -1.7629745 
C    -1.9599913    3.8637559   -0.6204997 
C    -1.1327679    3.5192557   -1.7943534 
C    -1.7885379    2.9617379    1.5479417 
C    -2.4230279    2.8235364    0.2076102 
C    -1.3497822    1.7784348    2.1981883 
C     0.9764494    2.6392969    1.9808913 
C     0.0620665    1.5957943    2.4782394 
C     2.4796700    2.7369713   -0.0286811 
C     2.1591863    2.1490380    1.2587404 
C     1.4646984    2.4415571   -2.1047448 
C     2.4211314    1.8511862   -1.1678034 
C    -0.9892236    2.1344519   -2.1323935 
C     0.3421458    1.6052665   -2.4089378 
C    -2.6114664    1.5321637   -0.3189305 
C    -1.9545245    1.1581779   -1.5810407 
C    -2.1405320    0.6261440    1.9328870 
C    -2.8037407    0.5259518    0.6458622 
C    -1.7627857   -0.6813757    2.2994081 
C     0.5217834    0.2205439    2.6992183 
C    -0.4289015   -0.9256981    2.7621779 
C     2.5079462    0.8114867    1.3864848 
C     1.8417475   -0.0930631    2.2969363 
C     2.5639420    0.4703633   -1.0404467 
C     2.9104332   -0.0053085    0.2539743 
C     0.5615059    0.1774930   -2.4034335 
C     1.7745200   -0.4134355   -1.8706526 
C    -1.8254728   -0.2168434   -1.8736949 
C    -0.5846317   -0.6858845   -2.5169109 
C    -2.8605541   -0.8426545    0.2803500 
C    -2.3756020   -1.6293668    1.3756696 
C    -2.5216465   -1.2287026   -1.0441573 
C    -1.9090772   -2.9572253    1.2084749 
C     0.0253061   -2.2604643    2.6355953 
C    -0.7658440   -3.3290104    2.0019390 
C     2.2057578   -1.4294059    1.9240486 
C     2.7795793   -1.3782440    0.5820579 
C     1.4165867   -2.5162391    2.2718088 
C     1.8821532   -1.8428513   -1.6681538 
C     2.4587889   -2.3578310   -0.3989206 
C    -0.3444518   -2.0517032   -2.6764153 
C     0.9337774   -2.6484830   -2.3457480 
C    -2.2655301   -2.6012186   -1.2312203 
C    -2.0719280   -3.5221695   -0.1179274 
C    -1.3578244   -3.0244148   -2.2790845 
C     0.6628603   -4.0195655   -1.9205939 
C    -1.1996281   -4.5859789   -0.5953674 
C    -0.7770397   -4.2506109   -1.9600866 
C     0.1548357   -4.2611636    1.4248952 
C     1.4767596   -3.6680150    1.4599778 
C     1.9961040   -3.6261606    0.1059402 
C    -0.0434533   -4.8404971    0.1505525 
C     1.1527943   -4.4595317   -0.6905177 
