60 

C    -0.4297494    0.5387291   -4.6402311 
C     0.4297494   -0.5387291   -4.6402311 
C    -0.1941720   -1.6441958   -3.9594286 
C    -1.6661601    0.1590942   -3.9056303 
C    -1.5113596   -1.1936571   -3.4379266 
C    -1.8884443    1.1590389   -2.9572722 
C     0.1941720    1.6441958   -3.9594286 
C    -0.7387099    2.1125359   -3.0223511 
C     1.6661601   -0.1590942   -3.9056303 
C     1.5113596    1.1936571   -3.4379266 
C     0.7387099   -2.1125359   -3.0223511 
C     1.8884443   -1.1590389   -2.9572722 
C     0.3025498   -2.7535448   -1.8433294 
C    -1.8771224   -1.5371963   -2.1113186 
C    -1.1011794   -2.5952036   -1.4517531 
C    -2.4150838    0.8432454   -1.6656457 
C    -2.4853293   -0.5322860   -1.2294692 
C    -2.2811448    1.8532164   -0.6841350 
C    -0.3025498    2.7535448   -1.8433294 
C    -1.2659804    2.8912190   -0.8178031 
C     1.8771224    1.5371963   -2.1113186 
C     1.1011794    2.5952036   -1.4517531 
C     2.4150838   -0.8432454   -1.6656457 
C     2.4853293    0.5322860   -1.2294692 
C     1.2659804   -2.8912190   -0.8178031 
C     2.2811448   -1.8532164   -0.6841350 
C     0.9084864   -3.3357842    0.4877931 
C    -1.4369654   -2.9465730   -0.1521535 
C    -0.4620184   -3.5295758    0.7715081 
C    -2.6473110   -0.7966954    0.1961629 
C    -2.3369084   -2.1161176    0.6467488 
C    -2.4644595    1.6091456    0.7083767 
C    -2.6293260    0.2797128    1.1907194 
C    -0.9084864    3.3357842    0.4877931 
C    -1.7419922    2.6301047    1.4526134 
C     1.4369654    2.9465730   -0.1521535 
C     0.4620184    3.5295758    0.7715081 
C     2.6473110    0.7966954    0.1961629 
C     2.3369084    2.1161176    0.6467488 
C     2.4644595   -1.6091456    0.7083767 
C     1.7419922   -2.6301047    1.4526134 
C     2.6293260   -0.2797128    1.1907194 
C     1.2634601   -2.3535426    2.7311617 
C    -0.9215410   -3.2849493    2.0914526 
C    -2.0853608   -2.3799659    2.0100491 
C    -0.0704755   -2.7999560    3.0853796 
C    -2.1966534    0.0154773    2.5819211 
C    -1.9341049   -1.3482815    2.9697299 
C    -0.7315849   -1.6716959    3.7169844 
C    -1.2634601    2.3535426    2.7311617 
C    -1.4741827    1.0286642    3.2808913 
C     0.9215410    3.2849493    2.0914526 
C     2.0853608    2.3799659    2.0100491 
C     0.0704755    2.7999560    3.0853796 
C     2.1966534   -0.0154773    2.5819211 
C     1.4741827   -1.0286642    3.2808913 
C     0.2212950   -0.6678222    3.9569556 
C    -0.2212950    0.6678222    3.9569556 
C     1.9341049    1.3482815    2.9697299 
C     0.7315849    1.6716959    3.7169844 
