60 

C     0.4579593    4.6365662    0.5539520 
C     1.6869951    3.9991703    0.7617634 
C     1.5242080    3.0996896    1.9121784 
C    -0.5166309    4.0775094    1.5091042 
C     0.1421475    3.0763019    2.2976366 
C    -1.6805629    3.7265386    0.7608304 
C    -0.1391399    4.6275947   -0.7467194 
C    -1.5019020    4.0817163   -0.6211543 
C     0.5045797    3.9647528   -1.8026887 
C     2.3050200    3.2217623   -0.2870536 
C     1.7092450    3.1975553   -1.5740801 
C     2.1851988    1.8941457    1.6591447 
C     2.7184295    1.9537534    0.2941507 
C     1.6931211    0.6559761    2.1650072 
C    -0.4789973    1.7947136    2.5619363 
C     0.3423261    0.5834190    2.6649882 
C    -2.3282005    2.5111123    1.0642299 
C    -1.8085830    1.6243056    2.0770753 
C    -2.8087316    1.6550552    0.0091544 
C    -1.6774302    3.0803558   -1.6211197 
C    -0.4738194    3.0694652   -2.4253167 
C    -2.3180479    1.8241803   -1.3213078 
C     1.5205202    1.9023328   -2.2054762 
C     0.1349265    1.8455613   -2.6980355 
C     2.7687419    0.7616787   -0.4350212 
C     2.1208797    0.7244101   -1.7417977 
C     2.3454918   -0.5290563    1.6629250 
C     2.8832848   -0.4768939    0.3115377 
C     1.9047444   -1.7746501    2.1696746 
C    -0.2842833   -0.7373572    2.7183389 
C     0.5325084   -1.8827179    2.6442334 
C    -2.3226706    0.2998226    1.8221044 
C    -2.9610838    0.3276684    0.5470186 
C    -1.6794803   -0.8724326    2.2739010 
C    -2.9987659   -0.8228846   -0.2632649 
C    -1.8862354    0.6007817   -2.0019551 
C    -0.5850351    0.6140927   -2.6292497 
C    -2.4294074   -0.6884341   -1.6050762 
C     1.5974045   -0.5482552   -2.2190268 
C     0.2008324   -0.5956789   -2.6925586 
C     2.9121443   -1.6722373   -0.4410453 
C     2.1818508   -1.7176267   -1.7237951 
C     2.2362827   -2.9860799    1.5059485 
C     2.7199635   -2.9242719    0.1921955 
C     0.0283501   -3.1890121    2.1974633 
C     1.0644849   -3.8668253    1.5077846 
C    -2.1255149   -2.0837741    1.6880989 
C    -2.8547703   -2.0562710    0.4382847 
C    -1.2991902   -3.2920270    1.6974272 
C    -2.5156171   -3.2518659   -0.2667427 
C    -1.5602709   -4.0460259    0.5278490 
C    -1.8501404   -1.8533104   -2.1688341 
C    -0.4843720   -1.8158731   -2.6509929 
C    -2.0256465   -3.1456464   -1.5587258 
C     1.5164272   -3.0091012   -1.7920995 
C     1.8630947   -3.7746266   -0.6486110 
C     0.8556074   -4.3867233    0.1731742 
C    -0.4794127   -4.4626222   -0.3286528 
C     0.1766185   -3.0678806   -2.2719742 
C    -0.7594463   -3.9018261   -1.6267358 
