60 

C     0.7798216   -3.8731161    0.9255050 
C    -0.3153383   -4.0671994    0.1081954 
C    -1.5194613   -3.6397637    0.8296306 
C     0.3040287   -3.1779562    2.1339072 
C    -1.1048427   -2.9311749    2.0027851 
C     1.1867567   -2.1310921    2.3818459 
C     1.9639360   -3.2239808    0.4507019 
C     2.3570055   -2.3137308    1.4997472 
C     2.0514573   -2.7923909   -0.9245821 
C    -0.3601576   -3.4908013   -1.2108026 
C     0.8140737   -2.8458488   -1.7363498 
C    -2.3886996   -3.0336208   -0.0901782 
C    -1.6744300   -2.9014679   -1.3717638 
C    -3.1906438   -1.9860865    0.3719504 
C    -1.6270559   -1.6178653    2.2832249 
C    -2.8098125   -1.2629318    1.5723375 
C     0.7185026   -0.7976127    2.6935163 
C    -0.7095557   -0.5329175    2.6854257 
C     1.6717927    0.2958086    2.4740399 
C     3.1780512   -1.2437497    1.2138919 
C     2.8789794    0.0792338    1.7324120 
C     2.9948711   -1.7430062   -1.1899491 
C     3.6521503   -1.0959478   -0.1150370 
C     2.7405861   -0.6838238   -2.1696061 
C     0.5746971   -1.7545926   -2.6281455 
C     1.5390946   -0.6898318   -2.8453480 
C    -1.8683202   -1.7235181   -2.1480601 
C    -0.7319446   -1.1797470   -2.7969949 
C    -3.6213283   -0.9962865   -0.5647079 
C    -2.8988598   -0.7870392   -1.7625277 
C    -3.1936428    0.1323826    1.3863501 
C    -3.7989235    0.2640937    0.1040326 
C    -1.1737316    0.8633226    2.6203800 
C    -2.4255986    1.1984993    1.9349753 
C     1.1957363    1.6192064    2.5172510 
C    -0.1917096    1.9001878    2.7285998 
C     1.7511880    2.6709021    1.6530535 
C     3.3303504    1.0553083    0.7559164 
C     3.7903261    0.3305007   -0.3868462 
C     3.2571191    0.6003794   -1.6565792 
C     2.6502488    2.3011626    0.5902384 
C     2.5190611    1.7947623   -1.8424192 
C     2.3170628    2.7135845   -0.7417476 
C     0.8076557    0.5506844   -3.0741668 
C    -0.5851996    0.2542516   -3.0012855 
C     1.2969309    1.7677642   -2.5880464 
C    -2.7066363    0.6591249   -1.9109595 
C    -3.3552708    1.2970446   -0.7722526 
C    -1.5232996    1.2047143   -2.4688516 
C    -2.5326106    2.4622422    1.2301647 
C    -2.7990581    2.4234154   -0.2095481 
C    -0.4274505    3.2223794    2.1907336 
C     0.7646351    3.6457922    1.4623182 
C    -1.5434959    3.4465747    1.4000237 
C     1.0759618    3.4436314   -0.9760398 
C     0.3748914    2.7658816   -2.0405707 
C    -1.0239071    2.5099771   -1.9810703 
C    -1.7423414    3.1541839   -0.9058134 
C     0.3629505    3.9867493    0.1090296 
C    -1.0565962    3.9033545    0.0680659 
