60 

C    -1.9917626   -3.8704234   -0.1545305 
C    -0.6250297   -4.0792721   -0.5429829 
C     0.2147192   -3.8088079    0.5617905 
C    -1.9959799   -3.3113706    1.1745352 
C    -0.6600820   -3.2196805    1.6172194 
C    -2.7423163   -2.0718016    1.1481085 
C    -2.5038988   -2.8561302   -0.9965434 
C    -3.1231317   -1.8193940   -0.2188071 
C    -0.3654283   -3.3438343   -1.7698065 
C    -1.5337590   -2.4893370   -2.0159225 
C     0.8928099   -2.8188263   -1.9742357 
C     1.5343300   -3.3128078    0.3640081 
C     1.9362070   -2.9429806   -0.9660846 
C     2.0934330   -2.5580972    1.4449972 
C    -0.1974035   -2.0766085    2.3754776 
C     1.1909939   -1.8826112    2.4069577 
C    -2.4002477   -0.9658189    1.9756866 
C    -1.0870915   -0.9141528    2.6040940 
C    -3.0518383    0.2431553    1.6074546 
C    -3.1971169   -0.5046493   -0.7337104 
C    -3.4706662    0.4937098    0.2279798 
C    -1.3986037   -1.1445376   -2.4220751 
C    -2.3901786   -0.1601429   -1.9260191 
C     1.0422893   -1.5289372   -2.6183914 
C    -0.0648980   -0.6694251   -2.8399739 
C     2.8666445   -1.8612877   -1.1805294 
C     2.3351461   -1.0086610   -2.2356665 
C     3.1706778   -1.6973591    1.2199118 
C     3.5420278   -1.2664140   -0.1010044 
C     1.7714430   -0.5890698    2.7208007 
C     3.0211722   -0.5116918    2.0515749 
C    -0.5043014    0.3879336    2.8835946 
C     0.9465815    0.5625600    2.8526106 
C    -2.5962004    1.4703393    2.1275659 
C    -1.3046238    1.5660319    2.6667923 
C    -3.2541936    1.8893283   -0.0581592 
C    -2.7847708    2.5264265    1.1262456 
C    -2.1673769    1.1960246   -2.1771949 
C    -2.6772551    2.2483327   -1.3013901 
C     0.2006314    0.7599306   -2.9386484 
C    -0.8886573    1.6663544   -2.7502275 
C     2.5604423    0.3619784   -2.2245691 
C     1.5139243    1.2580345   -2.6503400 
C     3.7135993    0.1817621   -0.0558861 
C     3.3884765    0.6247999    1.3024259 
C     3.2807232    0.9741891   -1.1218829 
C     1.4945656    1.8015761    2.3542996 
C     2.6503201    1.8066924    1.5053212 
C    -0.7254320    2.8153567    2.1256634 
C    -1.6430805    3.3566490    1.1221242 
C     0.6312726    2.8832207    1.9154010 
C    -1.7279408    3.3020195   -1.3150876 
C    -0.6623355    2.9640980   -2.2623346 
C    -1.1270685    3.8079810   -0.1283732 
C     1.6881069    2.5070278   -1.9351944 
C     2.6840620    2.2823091   -0.9001880 
C     2.4040757    2.7248565    0.4000687 
C     1.1817363    3.4483965    0.6782943 
C     0.5917560    3.3374564   -1.6982382 
C     0.3205015    3.8355995   -0.3470061 
