60 

C     3.3665310   -1.7835747   -0.8844715 
C     3.6810330   -0.4796943   -1.1910150 
C     2.9207559   -0.0820344   -2.3795037 
C     2.3970820   -2.2739898   -1.8967754 
C     2.0200498   -1.1657262   -2.7075204 
C     1.4534392   -3.0671697   -1.2422932 
C     2.9053591   -2.1654476    0.4092568 
C     1.8551631   -3.1380989    0.1800480 
C     2.7815274   -1.1903235    1.4571510 
C     3.5593805    0.5390201   -0.1917317 
C     3.2073332    0.1948504    1.1544754 
C     2.4329364    1.1985631   -2.1367490 
C     2.9327656    1.6658977   -0.8384183 
C     1.1093957    1.5602326   -2.5896003 
C     0.6338422   -0.9152954   -2.9745381 
C     0.2225143    0.4889119   -3.0972011 
C     0.0674837   -2.9915338   -1.6148804 
C    -0.3355836   -1.9356672   -2.5482446 
C    -0.8658019   -3.4483203   -0.6248235 
C     0.8899650   -3.3771941    1.1339383 
C    -0.4261419   -3.7190039    0.7012197 
C     1.6983737   -1.4029388    2.4352649 
C     0.7864080   -2.4751937    2.2703194 
C     1.1842511   -0.2734490    3.1669469 
C     2.6417210    1.2659545    1.9229365 
C     1.7711733    0.9872804    3.0080965 
C     2.2174561    2.6384243   -0.1065865 
C     2.1676285    2.4951050    1.3053026 
C     0.5540555    2.7213942   -2.0208860 
C     1.1069954    3.2896847   -0.7786387 
C    -0.8847369    2.9216448   -1.9684474 
C    -1.1677723    0.7719751   -3.1178530 
C    -1.7263335    1.9526869   -2.4608136 
C    -1.7213357   -1.5739093   -2.5610373 
C    -2.0997499   -0.2755796   -2.9339280 
C    -2.2055838   -2.8657549   -0.5256352 
C    -2.6377489   -1.9882143   -1.4886281 
C    -1.3497032   -3.1025024    1.6195739 
C    -0.6404004   -2.3092210    2.5475528 
C    -2.4723939   -2.5837055    0.8887254 
C    -0.2557143   -0.0580717    3.3503802 
C    -1.1825142   -1.0245977    2.9316697 
C     0.7285199    2.0079000    3.0599064 
C     0.9745866    2.9559765    2.0514393 
C    -0.5260868    1.3609217    3.1780065 
C     0.0454980    3.8239362   -0.0294810 
C    -1.1974248    3.5543312   -0.7154503 
C    -0.1161353    3.5076538    1.3623931 
C    -1.6397973    1.8006924    2.3738779 
C    -2.0998300    2.9642074    0.1897788 
C    -1.4324990    2.9157776    1.5071143 
C    -2.8824506    1.5290543   -1.6576571 
C    -3.1619554    0.2023274   -2.0381147 
C    -3.4460417   -0.8196817   -1.1045897 
C    -2.9645890    1.9074910   -0.2586244 
C    -3.0377557   -1.3713387    1.2680323 
C    -2.4111870   -0.5741946    2.3103549 
C    -2.5899902    0.8018050    1.9654960 
C    -3.5537578   -0.4705373    0.2556445 
C    -3.2822089    0.8782633    0.6792353 
