60 

C     3.7317737    1.4159244   -1.9470517 
C     4.3126165    0.9202939   -0.7331532 
C     4.2007113   -0.5082755   -0.7230999 
C     3.0604779    0.2966024   -2.5960327 
C     3.3023890   -0.8859114   -1.8389875 
C     1.7200314    0.6612615   -2.9043840 
C     2.7059226    2.3103090   -1.5958303 
C     1.4839101    1.9724415   -2.2895173 
C     3.7378714    1.6459314    0.3905957 
C     2.6907766    2.4879767   -0.1403855 
C     3.5124990    0.9544292    1.6032173 
C     4.0911182   -1.1798978    0.5178709 
C     3.8981997   -0.4098549    1.7188388 
C     3.2090584   -2.3092233    0.5932782 
C     2.2215549   -1.8141436   -1.6294585 
C     2.2462622   -2.5681561   -0.3962426 
C     0.6762808   -0.2755092   -2.8278978 
C     0.9296417   -1.5630131   -2.2187825 
C    -0.6762808    0.2755092   -2.8278978 
C     0.2493232    2.2764237   -1.7245766 
C    -0.9296417    1.5630131   -2.2187825 
C     1.4427256    2.6179270    0.4942421 
C     0.2481630    2.7950729   -0.3530031 
C     2.2400166    1.1322539    2.2974058 
C     1.2366066    1.9942406    1.8069535 
C     2.8741926   -1.0782919    2.5262206 
C     2.4939983   -2.2592535    1.8888358 
C     1.8532379   -0.1468937    2.8892893 
C     0.9767513   -2.8881395    0.2811431 
C     1.1334570   -2.5749551    1.6949624 
C    -0.2493232   -2.2764237   -1.7245766 
C    -0.2481630   -2.7950729   -0.3530031 
C    -1.7200314   -0.6612615   -2.9043840 
C    -1.4839101   -1.9724415   -2.2895173 
C    -3.0604779   -0.2966024   -2.5960327 
C    -2.2215549    1.8141436   -1.6294585 
C    -3.3023890    0.8859114   -1.8389875 
C    -0.9767513    2.8881395    0.2811431 
C    -2.2462622    2.5681561   -0.3962426 
C    -0.1065339    1.8134934    2.3151216 
C    -1.1334570    2.5749551    1.6949624 
C     0.4914810   -0.5339768    2.9004279 
C     0.1065339   -1.8134934    2.3151216 
C    -0.4914810    0.5339768    2.9004279 
C    -1.4427256   -2.6179270    0.4942421 
C    -1.2366066   -1.9942406    1.8069535 
C    -2.7059226   -2.3103090   -1.5958303 
C    -3.7317737   -1.4159244   -1.9470517 
C    -2.6907766   -2.4879767   -0.1403855 
C    -4.2007113    0.5082755   -0.7230999 
C    -4.3126165   -0.9202939   -0.7331532 
C    -3.7378714   -1.6459314    0.3905957 
C    -3.2090584    2.3092233    0.5932782 
C    -2.4939983    2.2592535    1.8888358 
C    -4.0911182    1.1798978    0.5178709 
C    -1.8532379    0.1468937    2.8892893 
C    -2.2400166   -1.1322539    2.2974058 
C    -3.5124990   -0.9544292    1.6032173 
C    -2.8741926    1.0782919    2.5262206 
C    -3.8981997    0.4098549    1.7188388 
