60 

C    -4.4243309    0.1533923    0.4769412 
C    -4.1503384   -1.0120803   -0.2689270 
C    -3.7836790   -0.6276193   -1.6094723 
C    -4.0024661    1.3058115   -0.3396637 
C    -3.5234801    0.8027285   -1.5792060 
C    -3.1486563    2.1024761    0.4662242 
C    -3.8650378    0.3073027    1.7559232 
C    -3.2309584    1.6108090    1.8252423 
C    -2.9551544   -0.6651066    2.2983884 
C    -3.2104801   -1.9983673    0.2082280 
C    -2.6267996   -1.8340386    1.5175518 
C    -2.7720751   -1.5221777   -2.0409322 
C    -2.3553153   -2.3510107   -0.9084205 
C    -1.8003392   -1.0586113   -2.8926661 
C    -2.3070005    1.3049651   -2.1655869 
C    -1.6795928    0.4082698   -3.0848860 
C    -1.8584314    2.5740676   -0.0515731 
C    -1.4423113    2.2384689   -1.4193374 
C    -0.8559469    2.8116329    0.9184569 
C    -2.0638307    1.4760950    2.5994597 
C    -1.8813091    0.0684685    2.9627729 
C    -0.9380474    2.2145528    2.2419706 
C    -0.5835768   -0.4570594    3.1294760 
C    -1.3150965   -2.3460765    1.6791613 
C    -0.3688658   -1.7744904    2.6076166 
C    -0.9785643   -2.7192943   -0.7584628 
C    -0.5413096   -2.8662423    0.5813916 
C    -0.4624726   -1.6154119   -2.8947358 
C     0.0277895   -2.3678175   -1.7758143 
C    -0.3684697    0.6339138   -3.4791206 
C     0.3684697   -0.6339138   -3.4791206 
C    -0.0277895    2.3678175   -1.7758143 
C     0.4624726    1.6154119   -2.8947358 
C     0.5413096    2.8662423    0.5813916 
C     0.9785643    2.7192943   -0.7584628 
C     0.3688658    1.7744904    2.6076166 
C     0.5835768    0.4570594    3.1294760 
C     1.3150965    2.3460765    1.6791613 
C     1.8813091   -0.0684685    2.9627729 
C     0.9380474   -2.2145528    2.2419706 
C     0.8559469   -2.8116329    0.9184569 
C     2.0638307   -1.4760950    2.5994597 
C     1.4423113   -2.2384689   -1.4193374 
C     1.8584314   -2.5740676   -0.0515731 
C     1.6795928   -0.4082698   -3.0848860 
C     1.8003392    1.0586113   -2.8926661 
C     2.3070005   -1.3049651   -2.1655869 
C     2.3553153    2.3510107   -0.9084205 
C     2.7720751    1.5221777   -2.0409322 
C     2.6267996    1.8340386    1.5175518 
C     2.9551544    0.6651066    2.2983884 
C     3.2104801    1.9983673    0.2082280 
C     3.2309584   -1.6108090    1.8252423 
C     3.1486563   -2.1024761    0.4662242 
C     3.8650378   -0.3073027    1.7559232 
C     3.5234801   -0.8027285   -1.5792060 
C     3.7836790    0.6276193   -1.6094723 
C     4.1503384    1.0120803   -0.2689270 
C     4.0024661   -1.3058115   -0.3396637 
C     4.4243309   -0.1533923    0.4769412 
