60 

C     1.7315010   -3.3211402    1.2911862 
C     2.6136593   -2.3417385    1.7072578 
C     3.4031449   -1.9015070    0.5366677 
C     1.8805659   -3.5070175   -0.1650440 
C     2.8479613   -2.5436313   -0.6206786 
C     0.5890492   -3.5377480   -0.6975086 
C     0.3528611   -3.2333455    1.6234620 
C    -0.3812034   -3.5186091    0.4139383 
C    -0.1084074   -2.2071399    2.5154314 
C     2.1539681   -1.1900485    2.4170163 
C     0.7932913   -1.0926380    2.8592669 
C     3.4888867   -0.5100954    0.5969863 
C     2.8124299   -0.0535705    1.8244587 
C     3.3631640    0.2945296   -0.6067647 
C     2.5489101   -1.7547300   -1.7638078 
C     2.8758932   -0.3579868   -1.7848027 
C     0.2676061   -2.8046942   -1.9202482 
C     1.2850034   -1.9161259   -2.4392462 
C    -1.0777076   -2.4852272   -2.1594828 
C    -1.7052484   -3.0650429    0.2093232 
C    -2.1022406   -2.7163651   -1.1358675 
C    -1.5093466   -1.9525283    2.4407334 
C    -2.3227550   -2.3748288    1.2999293 
C    -2.0092040   -0.7131225    2.8808842 
C     0.2561681    0.2585475    3.0277427 
C    -1.1645907    0.3965745    3.0971126 
C     2.3215059    1.2578955    1.9322923 
C     1.0294768    1.4443568    2.6106883 
C     3.0729632    1.6536513   -0.4207632 
C     2.7346450    2.1727678    0.8919700 
C     2.2997417    2.4153918   -1.4096629 
C     1.9041550    0.3240881   -2.6325186 
C     0.9223861   -0.6450233   -3.0260648 
C     1.5659779    1.6875269   -2.4302769 
C    -1.4422384   -1.2701381   -2.8873914 
C    -0.4447786   -0.2802192   -3.2093118 
C    -3.1024557   -1.7440377   -1.3288912 
C    -2.6997498   -0.8583340   -2.4106423 
C    -3.3269252   -1.3437332    1.0594275 
C    -3.1234987   -0.3149899    2.0169652 
C    -3.6040310   -0.9505549   -0.2595642 
C    -1.8498696    1.5327095    2.4770847 
C    -2.9580428    1.0299458    1.6617078 
C     0.3145938    2.6471873    2.3176904 
C    -1.1248650    2.6042102    2.0696288 
C     2.0082209    3.3696059    0.6759599 
C     1.7190348    3.5132009   -0.7600778 
C     0.8235667    3.5770962    1.3719358 
C    -1.4157953    3.2696222    0.7864195 
C     0.3150065    3.8042091   -0.9049975 
C    -0.2454975    3.9349116    0.4059286 
C     0.2056251    2.0815192   -2.6747141 
C    -0.7923072    1.0949954   -3.0388876 
C    -0.4316301    3.0787547   -1.8492011 
C    -2.9475476    0.4873085   -2.0147779 
C    -3.4778943    0.4663435   -0.6525360 
C    -3.0853349    1.4638261    0.2787074 
C    -2.2511671    2.5889205   -0.1805569 
C    -2.0344575    1.4695890   -2.3922262 
C    -1.7621731    2.5866261   -1.5212895 
