60 

C    -0.2302985    4.0164991   -1.0595450 
C    -1.3416473    3.8896850   -0.2373784 
C    -2.3048388    2.9879356   -0.8711388 
C    -0.4433237    3.1402291   -2.2175374 
C    -1.7040227    2.4506547   -2.0545849 
C     0.7308976    2.4113958   -2.4146063 
C     1.0941047    3.8034772   -0.5475761 
C     1.7322441    2.8328695   -1.4223637 
C     1.2616394    3.6658221    0.8510474 
C    -1.1893378    3.4828246    1.1459527 
C     0.0876544    3.4204332    1.7010643 
C    -2.7671236    2.0965793    0.1142443 
C    -2.1146577    2.4030036    1.3838127 
C    -3.1166248    0.7503434   -0.2529787 
C    -1.8193028    1.0659603   -2.3801244 
C    -2.7358404    0.2513183   -1.5769017 
C     0.6509297    1.0541958   -2.8856504 
C    -0.6676426    0.4192219   -3.0086787 
C     1.7752396    0.2394545   -2.6360599 
C     2.6581486    1.8768944   -0.9241687 
C     2.7277221    0.6020762   -1.5938407 
C     2.2913691    2.8059424    1.3304229 
C     2.9693784    1.8933463    0.4769325 
C     0.4288812    2.3126919    2.6078948 
C     1.8126993    2.0536802    2.4645346 
C    -1.8097074    1.3385566    2.2739129 
C    -0.4758739    1.2276507    2.8559633 
C    -3.2409728   -0.1544622    0.8189056 
C    -2.5869805    0.1501888    2.0868735 
C    -3.1588520   -1.5953311    0.6101392 
C    -2.7279101   -1.1595022   -1.7683336 
C    -2.8744425   -2.0898313   -0.6535080 
C    -0.6974824   -0.9948803   -3.1536672 
C    -1.7951289   -1.7410983   -2.6542066 
C     1.6926538   -1.1949144   -2.6716375 
C     0.4956033   -1.8182485   -2.9813193 
C     3.1405846   -0.5882919   -0.9265819 
C     2.5533711   -1.7275093   -1.6276815 
C     3.1220907    0.6286357    1.1924940 
C     2.3094340    0.7233382    2.3813878 
C     3.2539512   -0.5995661    0.5130798 
C     0.0920866   -0.1143503    3.1092925 
C     1.5021935   -0.3715148    2.8070509 
C    -2.1240739   -1.0589414    2.6260650 
C    -2.4859618   -2.1654058    1.7303881 
C    -0.7916313   -1.2279801    3.0450235 
C    -1.4158390   -3.0590838    1.6119388 
C    -0.3689708   -2.5425489    2.5165722 
C    -1.8959530   -3.1735294   -0.8050974 
C    -1.3006157   -2.9826386   -2.0790550 
C     0.1088214   -3.0443080   -2.2709250 
C    -1.0816241   -3.6073781    0.3080852 
C     2.2047020   -2.8963209   -0.9606461 
C     0.9123101   -3.5342756   -1.2361441 
C     0.3073948   -3.8649868    0.0483348 
C     2.7951163   -1.7733800    1.2022123 
C     1.8980483   -1.6524943    2.3219291 
C     0.9508314   -2.7611340    2.2197008 
C     2.4201855   -2.9508240    0.4604288 
C     1.2863941   -3.5501741    1.0562522 
