60 

C     1.4913543    4.4572916   -0.8420770 
C     0.1043044    4.6709735   -0.5650256 
C    -0.1224170    4.5092395    0.8434515 
C     2.0887558    3.9436090    0.3722829 
C     1.1090638    3.9622012    1.4045377 
C     2.6861888    2.6716604    0.1034367 
C     1.5532735    3.3694070   -1.7801087 
C     2.4211178    2.3461622   -1.2910359 
C    -0.6818159    3.8374689   -1.4754620 
C     0.2442171    2.9492888   -2.1931104 
C    -1.8769018    3.3139155   -1.0329831 
C    -1.2115165    3.7401302    1.3120554 
C    -2.2285052    3.3858506    0.3996330 
C     0.7633730    2.7778406    2.1444671 
C    -0.6774813    2.6623069    2.1720857 
C     2.6105816    1.6035429    1.0505636 
C     1.5476878    1.5901087    2.0589201 
C     3.0185257    0.3693914    0.5320551 
C     2.2389535    1.0054246   -1.7007548 
C     2.9023207    0.0768987   -0.8783230 
C    -0.0605629    1.5527300   -2.4244903 
C     1.0100542    0.5663705   -2.3496211 
C    -2.3256950    2.0118688   -1.5296557 
C    -1.4228473    1.0973366   -2.1947155 
C    -2.9805730    2.2308796    0.6773910 
C    -3.2178389    1.5033161   -0.5615277 
C    -1.3058440    1.3904772    2.2858779 
C    -2.5864942    1.2507861    1.6300124 
C     0.9479887    0.3070288    2.3960219 
C    -0.4936828    0.1912883    2.4974341 
C     2.7879587   -0.8594976    1.2198747 
C     1.7222070   -0.9108167    2.1722206 
C     2.7370228   -1.3238901   -1.0338539 
C     2.9516374   -1.9396127    0.2735005 
C     0.7272696   -0.8551951   -2.3906407 
C     1.7319976   -1.8219970   -1.8968696 
C    -1.6951274   -0.3276025   -2.1215647 
C    -0.6575058   -1.2945870   -2.4361089 
C    -3.2853889    0.1335018   -0.2934633 
C    -2.9651622   -0.0475561    1.1181619 
C    -2.7508691   -0.7828360   -1.2141776 
C    -1.1144705   -1.1352500    2.3357358 
C    -2.3555303   -1.2301621    1.5538761 
C     1.1110661   -2.1914407    2.3549604 
C    -0.3315714   -2.3035595    2.3978802 
C     2.4508373   -3.2018284    0.5446541 
C     1.6142835   -3.3546557    1.7065259 
C     1.3883053   -3.2171502   -1.6946554 
C     1.8444784   -3.9326221   -0.5248912 
C    -0.9455188   -2.7078594   -2.2477498 
C     0.0788367   -3.6673532   -2.0059687 
C    -2.7329897   -2.1058131   -0.7180539 
C    -2.5479083   -2.3594783    0.7040194 
C    -2.0576935   -3.1056487   -1.4209654 
C    -0.7073985   -3.5813213    1.7484088 
C     0.5086606   -4.2378943    1.3571327 
C     0.7032502   -4.6793378    0.0159817 
C    -0.3547661   -4.5815178   -0.9182685 
C    -1.7918517   -3.5845655    0.8412443 
C    -1.6096440   -4.1372472   -0.4882808 
