60 

C     0.6414684   -0.3769784   -4.0443036 
C     1.6311985    0.4820412   -3.6219076 
C     0.9826269    1.7552634   -3.1978218 
C    -0.6414684    0.3769784   -4.0443036 
C    -0.4425265    1.6093177   -3.3265134 
C    -1.6311985   -0.4820412   -3.6219076 
C     0.4425265   -1.6093177   -3.3265134 
C    -0.9826269   -1.7552634   -3.1978218 
C     1.2784096   -1.9587340   -2.2213920 
C     2.5798848    0.1042591   -2.6460939 
C     2.4818886   -1.1503689   -1.9564306 
C     1.6143644    2.1834095   -2.0388777 
C     2.7730192    1.2968953   -1.8280767 
C     0.8388763    2.6187985   -0.9060162 
C    -1.2784096    1.9587340   -2.2213920 
C    -0.6280829    2.6043738   -1.0665047 
C    -2.5798848   -0.1042591   -2.6460939 
C    -2.4818886    1.1503689   -1.9564306 
C    -1.6143644   -2.1834095   -2.0388777 
C    -2.7730192   -1.2968953   -1.8280767 
C     0.6280829   -2.6043738   -1.0665047 
C    -0.8388763   -2.6187985   -0.9060162 
C     1.3846446   -2.7800375    0.0976809 
C     3.1962109   -1.2676545   -0.6823405 
C     2.7522430   -2.2602272    0.2502058 
C     3.3484560    1.2045704   -0.6111792 
C     3.8183096   -0.0846741   -0.1145868 
C     1.4556701    2.5244866    0.4015763 
C     2.7915623    1.9699399    0.5058080 
C     0.6159521    2.4305015    1.5789657 
C    -1.3846446    2.7800375    0.0976809 
C    -0.7573580    2.7656054    1.3994401 
C    -3.1962109    1.2676545   -0.6823405 
C    -2.7522430    2.2602272    0.2502058 
C    -3.3484560   -1.2045704   -0.6111792 
C    -3.8183096    0.0846741   -0.1145868 
C    -1.4556701   -2.5244866    0.4015763 
C    -2.7915623   -1.9699399    0.5058080 
C     0.7573580   -2.7656054    1.3994401 
C    -0.6159521   -2.4305015    1.5789657 
C     2.9898371   -2.1142111    1.6476519 
C     1.7208116   -2.3409054    2.3343644 
C     3.9443091    0.0783711    1.2880999 
C     3.2194707    1.3306514    1.6635173 
C     3.5366668   -0.9199870    2.1698374 
C     0.9720737    1.5385775    2.6782473 
C     1.4253579   -1.2256679    3.1793995 
C     2.3020866    1.0158727    2.7200436 
C     2.5327654   -0.3348856    3.0933993 
C    -0.9720737   -1.5385775    2.6782473 
C    -0.0934576    0.7226353    3.2538072 
C     0.0934576   -0.7226353    3.2538072 
C    -1.7208116    2.3409054    2.3343644 
C    -2.9898371    2.1142111    1.6476519 
C    -1.4253579    1.2256679    3.1793995 
C    -3.9443091   -0.0783711    1.2880999 
C    -3.2194707   -1.3306514    1.6635173 
C    -2.3020866   -1.0158727    2.7200436 
C    -3.5366668    0.9199870    2.1698374 
C    -2.5327654    0.3348856    3.0933993 
