60 

C    -0.6880215   -5.0302280   -0.9611253 
C     0.6018217   -4.5693796   -1.3913268 
C     1.5160367   -4.6325389   -0.3014934 
C    -0.6379502   -5.0138534    0.5109119 
C     0.6825351   -4.7544846    0.9333923 
C    -1.6558226   -4.1421395    0.9923166 
C    -1.6286670   -4.0253067   -1.3274499 
C    -2.3765442   -3.6202701   -0.1873619 
C     0.4531283   -3.2794559   -2.0858648 
C    -0.9466174   -2.9517753   -2.0717568 
C     1.4087590   -2.2170588   -1.9246248 
C     2.4167782   -3.5946090   -0.1147981 
C     2.4647194   -2.4462788   -0.9734232 
C     0.9998178   -3.6239689    1.7727984 
C     2.1929133   -3.0507876    1.2276408 
C    -1.3692903   -3.0206728    1.8227659 
C    -0.0221862   -2.6728367    2.2179178 
C    -2.6787363   -2.2719216    0.0128597 
C    -2.1826023   -1.9247129    1.3320227 
C    -1.3804341   -1.6019554   -1.9777855 
C    -2.3996241   -1.2863572   -0.9951716 
C     0.9657491   -0.8405514   -2.1545079 
C    -0.4365977   -0.5296293   -2.2699899 
C     1.7884839    0.2607489   -1.7071509 
C     2.7909695   -1.3182020   -0.1346571 
C     2.4534739   -1.6715324    1.2383257 
C     2.5968389   -0.0237632   -0.5466629 
C     0.3164416   -1.2504327    2.3646543 
C     1.6195369   -0.7639124    1.9508877 
C    -1.9377914   -0.5973240    1.6617486 
C    -0.7105408   -0.2149902    2.3092305 
C    -2.5666365    0.0643721   -0.6047675 
C    -2.5529519    0.3813024    0.7977020 
C    -0.8843774    0.8524813   -2.1980527 
C    -2.1170656    1.1225338   -1.4827370 
C     1.4295782    1.6311483   -1.9598548 
C     0.0664937    1.9430721   -2.3314508 
C     2.1927615    2.6342485   -1.2525266 
C     2.5773588    0.9721534    0.5070982 
C     1.8645162    0.6425746    1.7044622 
C     2.6540499    2.2876869    0.0695073 
C    -0.3916034    1.2177970    2.3958833 
C     0.9822024    1.6700229    2.2292618 
C    -2.4843111    1.7166154    1.2101476 
C    -1.4072960    2.1617625    2.0794877 
C    -2.4504387    2.4512757   -1.1050011 
C    -2.7317855    2.7343321    0.2782169 
C    -0.3875323    3.3086523   -2.1383913 
C    -1.6557959    3.5382603   -1.5574724 
C     1.7876895    4.0207551   -1.1765108 
C     0.4978041    4.3320318   -1.6038812 
C     2.2754271    3.3600804    0.9511448 
C     1.2436031    3.0343519    1.9254810 
C     1.9347015    4.5054423    0.2060404 
C    -1.1433416    3.5723275    1.7587229 
C    -2.0423504    3.9575207    0.6874191 
C    -1.5175720    4.5575004   -0.4739831 
C    -0.2085363    5.0528235   -0.5032577 
C     0.1910947    4.0251374    1.7216354 
C     0.6277370    4.9319178    0.6433542 
