60 

C    -0.2954064    5.0257626    1.1527319 
C     0.4820444    5.2913707    0.0000000 
C    -0.2954064    5.0257626   -1.1527319 
C    -1.5942488    4.4580839    0.7132250 
C    -1.5942488    4.4580839   -0.7132250 
C    -1.7659334    3.2135177    1.3876689 
C     0.3669150    4.0059383    1.9095804 
C    -0.5534062    2.9591075    2.1958094 
C     1.6388843    4.3573323    0.0000000 
C     1.6132002    3.6127311    1.2167274 
C     0.3669150    4.0059383   -1.9095804 
C     1.6132002    3.6127311   -1.2167274 
C    -1.7659334    3.2135177   -1.3876689 
C    -0.5534062    2.9591075   -2.1958094 
C    -2.2771693    2.0705749    0.7280077 
C    -2.2771693    2.0705749   -0.7280077 
C    -2.1332057    0.7907328    1.4008226 
C    -0.0978451    1.6393829    2.4368407 
C    -1.0354506    0.5476892    2.3205515 
C     1.9963304    2.2542561    1.2300082 
C     1.2982602    1.3540396    2.1525415 
C     1.9963304    2.2542561   -1.2300082 
C     2.4412349    1.6198120    0.0000000 
C    -0.0978451    1.6393829   -2.4368407 
C     1.2982602    1.3540396   -2.1525415 
C    -2.1332057    0.7907328   -1.4008226 
C    -1.0354506    0.5476892   -2.3205515 
C    -2.6444775   -0.3247379    0.7279175 
C    -2.6444775   -0.3247379   -0.7279175 
C    -2.4372624   -1.6741952    1.1574610 
C    -0.6033500   -0.8180463    2.5444509 
C    -1.4176691   -1.9573385    2.1131876 
C     1.6816410    0.0216136    2.1877731 
C     0.8056236   -1.0283944    2.6134348 
C     2.7362560    0.2008428    0.0000000 
C     2.5747865   -0.5539414    1.1968879 
C     1.6816410    0.0216136   -2.1877731 
C     2.5747865   -0.5539414   -1.1968879 
C    -0.6033500   -0.8180463   -2.5444509 
C     0.8056236   -1.0283944   -2.6134348 
C    -2.4372624   -1.6741952   -1.1574610 
C    -2.5872087   -2.5392644    0.0000000 
C    -1.4176691   -1.9573385   -2.1131876 
C    -2.0839889   -3.8348231    0.0000000 
C    -0.8451554   -3.2799805    2.0695411 
C    -1.3301188   -4.2641491    1.1648604 
C     1.3940292   -2.2788956    2.1961537 
C     2.4233244   -1.9748060    1.2072963 
C     0.6320410   -3.4301666    2.0964625 
C     2.4233244   -1.9748060   -1.2072963 
C     1.3940292   -2.2788956   -2.1961537 
C     2.4584465   -2.7610878    0.0000000 
C    -0.8451554   -3.2799805   -2.0695411 
C    -1.3301188   -4.2641491   -1.1648604 
C     0.6320410   -3.4301666   -2.0964625 
C    -0.2087978   -5.0779681    0.6989807 
C     1.0121717   -4.4398893    1.1563725 
C     1.7966775   -4.0360252    0.0000000 
C    -0.2087978   -5.0779681   -0.6989807 
C     1.0121717   -4.4398893   -1.1563725 
