60 

C    -0.5685066    4.8827360   -0.2946064 
C    -1.5952714    4.1443075    0.3746433 
C    -1.1640413    3.7598754    1.6763403 
C     0.6309594    4.7145307    0.5132809 
C     0.2797500    4.0479766    1.7333371 
C     1.6428141    4.1162447   -0.2918121 
C    -0.3265352    4.1840375   -1.5352553 
C     1.0363004    3.8243273   -1.6096760 
C    -2.0971711    3.0848242   -0.4926689 
C    -1.2733206    3.0923537   -1.6865582 
C    -2.5383338    1.8514989    0.0334124 
C    -1.3804572    2.4416066    2.1199092 
C    -2.2203537    1.5255504    1.4153048 
C     0.9236161    2.8511335    2.1293855 
C    -0.1092231    1.8972527    2.5500138 
C     2.3206926    2.9434996    0.1117875 
C     2.0140179    2.2922821    1.3632661 
C     1.4329029    2.5276086   -2.0250199 
C     2.3640180    2.0418055   -1.0475743 
C    -0.9079697    1.8480743   -2.2989000 
C     0.4966382    1.5665613   -2.5348134 
C    -2.6640902    0.7535547   -0.9110948 
C    -1.7962109    0.7332701   -2.0820793 
C    -3.1301248   -0.4637527   -0.4127015 
C    -2.1604293    0.1437655    1.8007745 
C    -2.9670016   -0.7528288    1.0303705 
C     0.1207470    0.5237814    2.6434821 
C    -1.0079202   -0.3983548    2.4871500 
C     2.2913489    0.8845675    1.4952585 
C     1.4579042    0.0546633    2.3491907 
C     2.6788197    0.6860405   -0.9274634 
C     2.9671786    0.1830851    0.4094623 
C     0.9399295    0.1963158   -2.6165339 
C     2.1459429   -0.2222072   -1.9241999 
C    -1.4253845   -0.5389356   -2.5937834 
C    -0.0414360   -0.8063196   -2.8594796 
C    -2.9911206   -1.7169076   -1.1137351 
C    -2.0549174   -1.7725396   -2.1646977 
C    -2.8845405   -2.1271732    1.1941329 
C    -2.9822329   -2.7633138   -0.1276850 
C    -0.7860588   -1.8402327    2.4844290 
C    -1.7792069   -2.7184851    1.9086013 
C     1.6776813   -1.3487267    2.3962074 
C     0.5640692   -2.3086536    2.4808703 
C     3.2410069   -1.1903651    0.5376204 
C     2.7176344   -1.9259386    1.6580941 
C     2.3967523   -1.6176063   -1.7418304 
C     3.0829111   -2.0478426   -0.5940555 
C     0.1870946   -2.2213728   -2.6155256 
C    -1.0616014   -2.8379442   -2.1974621 
C     1.3993840   -2.6372192   -2.0871051 
C    -2.0483818   -3.7862391   -0.1711442 
C    -1.3621138   -3.8483125    1.1338175 
C    -1.0402349   -3.8371965   -1.1977271 
C     0.9530827   -3.4951399    1.7505984 
C     2.2688663   -3.2521216    1.2209995 
C     2.4800555   -3.3283034   -0.1491972 
C     1.4293680   -3.6821222   -1.0640783 
C    -0.0011374   -4.1341534    0.9169673 
C     0.2238409   -4.1768223   -0.5502439 
