60 

C     0.3307637    4.7248382   -0.4076458 
C    -0.6814396    4.6419121    0.5620984 
C    -0.1339424    3.8639674    1.7051926 
C     1.5082760    4.1104248    0.1048635 
C     1.2432783    3.5421265    1.4336005 
C     2.0226143    3.2416924   -0.9107525 
C    -0.0702799    3.9354647   -1.5980842 
C     0.9641840    3.0128537   -1.9156115 
C    -1.7351061    3.8608653    0.0169110 
C    -1.3665928    3.4131024   -1.3452987 
C    -1.0057424    2.7964669    1.9805937 
C    -2.0893518    2.8471690    0.9597850 
C    -0.5408187    1.5095219    2.3867694 
C     1.7489821    2.2508038    1.7626069 
C     0.8843483    1.2353007    2.3763307 
C     2.7516360    2.1605306   -0.5083407 
C     2.7568723    1.7184354    0.8891112 
C     2.8145325    0.9777411   -1.3202057 
C     0.6813360    1.6621404   -2.3224966 
C     1.7261177    0.6417992   -2.1651297 
C    -1.6845325    2.0937584   -1.7223722 
C    -0.6941755    1.2212687   -2.3491859 
C    -2.6913044    1.6836469    0.5243511 
C    -2.7063239    1.4299149   -0.9253153 
C    -1.5033924    0.4208657    2.3091797 
C    -2.6701111    0.5308338    1.4245371 
C    -1.0561893   -0.8697358    2.6247884 
C     1.3321768   -0.1504128    2.4523746 
C     0.3561934   -1.1523635    2.7030816 
C     3.1502431    0.3653329    0.8999977 
C     3.3998125   -0.0341077   -0.4900966 
C     2.5641699   -0.5923036    1.7906614 
C     3.3676895   -1.3406606   -0.8701707 
C     1.4340767   -0.7891792   -2.3545681 
C     2.4095486   -1.7395141   -1.9007989 
C    -1.0039634   -0.2010287   -2.5207369 
C     0.0549452   -1.2155892   -2.4936061 
C    -3.1464470    0.1988104   -1.3490190 
C    -2.3409607   -0.6091231   -2.2660681 
C    -3.3489447   -0.6180282    1.0047055 
C    -3.7740668   -0.6923933   -0.3922196 
C    -1.7374450   -2.0626388    2.1503505 
C    -2.8965439   -1.9567664    1.3823653 
C     0.5464157   -2.5352792    2.3097609 
C    -0.7297068   -3.0448008    1.8358735 
C     2.7662180   -1.9687887    1.4677955 
C     3.3461426   -2.3358836    0.1812120 
C     1.7417837   -2.9650698    1.7371943 
C     2.0461748   -3.0858259   -1.5615781 
C     2.7049212   -3.4796050   -0.3142904 
C     1.6923169   -3.8938420    0.6101399 
C    -0.2963737   -2.5774142   -2.0545370 
C    -0.7747957   -3.7009945    0.5602574 
C     0.6907949   -3.4212204   -1.4680823 
C     0.4671559   -3.9628785   -0.0957845 
C    -2.6624551   -1.9762735   -1.9558550 
C    -3.5989297   -1.9976381   -0.8375702 
C    -3.0427291   -2.8113119    0.2182312 
C    -1.6327015   -2.8697720   -1.6601962 
C    -1.8883547   -3.4411451   -0.2891043 
