60 

C    -2.4740842   -3.4032026   -1.1085661 
C    -1.3629938   -4.0704907   -0.5321887 
C    -1.3134475   -3.7392702    0.8883629 
C    -3.0440753   -2.5477513   -0.1437605 
C    -2.2982883   -2.6964853    1.1077834 
C    -3.1627134   -1.2324920   -0.7085839 
C    -1.9673565   -2.5297904   -2.1750943 
C    -2.4807326   -1.2173110   -1.9967959 
C    -0.1964935   -3.7761525   -1.3281899 
C    -0.5739144   -2.7126865   -2.3064280 
C     1.0427399   -3.7160056   -0.7064413 
C    -0.0633467   -3.6367482    1.5022111 
C     1.1233203   -3.8822084    0.7179714 
C     0.2234683   -2.5199405    2.3882935 
C    -1.9951251   -1.5422554    1.8659088 
C    -0.6955872   -1.4634486    2.5631704 
C    -3.1110864   -0.0985393    0.1124055 
C    -2.6418263   -0.2831778    1.4797516 
C    -2.9459216    1.1836739   -0.5703348 
C    -1.7140150   -0.0880811   -2.3516678 
C    -2.1781840    1.1834297   -1.8126900 
C     0.2752775   -1.5933929   -2.5559364 
C    -0.3276786   -0.2769325   -2.7353977 
C     2.0047534   -2.6834326   -1.0990233 
C     1.6673550   -1.6705656   -2.0714491 
C     2.1546850   -3.0079001    1.1735485 
C     1.6589919   -2.2136984    2.2421378 
C     2.7696230   -2.3283256    0.0564916 
C     2.1326850   -0.9108051    2.3720901 
C    -0.1487833   -0.1348185    2.9190948 
C     1.2487099    0.1260490    2.8231700 
C    -2.2765244    0.8946792    2.1618641 
C    -0.9704361    0.9977138    2.8226823 
C    -2.9255377    2.3467113    0.2595699 
C    -2.5982880    2.1531555    1.6312870 
C    -2.2278162    3.5411176   -0.1580066 
C    -1.4146343    2.3371097   -2.1408286 
C    -1.5044145    3.5207473   -1.3281462 
C     0.5335875    0.9040612   -2.7844592 
C    -0.0428259    2.1897110   -2.5533940 
C     2.4576646   -0.5099519   -2.0639750 
C     1.9337938    0.7623713   -2.5444339 
C     3.3211123   -1.0133329    0.2111839 
C     3.1004843   -0.3351454    1.4539298 
C     3.3610063   -0.2129343   -0.9668241 
C     1.7551961    1.3858671    2.3394125 
C     2.9115257    1.0937629    1.4986662 
C    -0.4446164    2.3144645    2.5543902 
C    -1.4973971    3.0868958    1.9633116 
C    -1.2764312    3.9468324    0.9125434 
C     0.9112472    2.4989397    2.1043713 
C    -0.1329770    3.9946594   -1.0708596 
C     0.7362233    3.2583588   -1.8863452 
C     0.0519787    4.0871054    0.3434198 
C     1.1722636    3.3891323    0.9428663 
C     2.6658467    1.8100515   -1.8999720 
C     3.4339419    1.2015671   -0.8584969 
C     3.1246861    1.8856293    0.3692432 
C     2.0081118    2.9563219   -1.3836867 
C     2.2272735    2.9971549    0.0608431 
