60 

C    -0.5577709   -4.7472981    0.5396538 
C     0.5090029   -4.7180303   -0.3528827 
C     1.6596130   -4.0916550    0.2381718 
C    -0.1394749   -4.0239448    1.7411554 
C     1.2305637   -3.5512177    1.5138003 
C    -1.0732046   -2.9931276    1.9256770 
C    -1.6316967   -4.0079681   -0.0911902 
C    -2.0724675   -3.0441473    0.8195798 
C     0.1502717   -3.9942721   -1.5867220 
C    -1.1940576   -3.5219086   -1.4275996 
C     2.1728083   -3.1916764   -0.7442371 
C     1.1745792   -3.0595536   -1.8387450 
C     2.8105592   -2.0555740   -0.3092392 
C     1.6296736   -2.2116793    1.8811837 
C     2.6334979   -1.6137073    1.0669611 
C    -0.7228210   -1.6933286    2.4479213 
C     0.6725726   -1.2766773    2.5006986 
C    -1.7247852   -0.7131634    2.3215033 
C    -2.6885698   -1.8581637    0.3650731 
C    -2.7780764   -0.8136081    1.3065751 
C    -1.5234281   -2.2101008   -1.8276003 
C    -2.5575338   -1.5000968   -1.0539211 
C     0.8793285   -1.7561316   -2.3569065 
C    -0.5121065   -1.3715325   -2.4959962 
C     2.8417007   -0.8729408   -1.1204167 
C     1.8776367   -0.7085622   -2.1627958 
C     2.8636978   -0.2090371    1.0834951 
C     3.1316348    0.2410956   -0.2657304 
C     0.9733100    0.1312136    2.6129877 
C     2.1941102    0.6497082    1.9964286 
C    -1.4494822    0.6701901    2.5194312 
C    -0.1170919    1.1057529    2.7716468 
C    -3.1219360    0.5054802    0.9208655 
C    -2.3775317    1.4529747    1.7253639 
C    -2.8968943   -0.2022657   -1.4195740 
C    -3.3586798    0.7802402   -0.4446113 
C    -0.8353168    0.0070743   -2.8037226 
C    -2.1216258    0.5161687   -2.4346072 
C     1.5467646    0.6360058   -2.4910966 
C     0.2225135    0.9768908   -2.9173055 
C     2.8990854    1.5835753   -0.6445752 
C     2.1661070    1.7845807   -1.8583234 
C     2.3560195    2.0383932    1.7502674 
C     2.7572699    2.5207861    0.4189150 
C     0.1180206    2.4963479    2.5689409 
C     1.4404384    2.9962101    2.3036380 
C    -2.0142917    2.7391027    1.2458429 
C    -0.8397445    3.3204491    1.8072915 
C    -3.0023130    2.0593786   -0.9257371 
C    -2.2883865    1.8952823   -2.1802156 
C    -2.3360119    3.0437829   -0.1417377 
C     0.0321169    2.3812785   -2.6150326 
C     1.2440287    2.8853002   -1.9610351 
C    -1.2158913    2.8340540   -2.1978647 
C    -1.3195614    3.6668663   -0.9865505 
C     2.0346649    3.7301204    0.1980857 
C     1.3232295    4.0847197    1.3949409 
C    -0.0539351    4.2244325    1.0325963 
C     1.1559628    3.8470281   -0.9469958 
C    -0.1760955    4.2068853   -0.4157239 
