60 

C     0.4235454    4.5443418    1.2066453 
C     0.9457992    4.6683493   -0.0911987 
C    -0.0934431    4.3371472   -1.0677995 
C    -0.9347477    4.0907610    1.0925361 
C    -1.2712825    3.9664684   -0.3394247 
C    -1.0684589    2.9311835    1.8938811 
C     1.1907296    3.5322211    1.9291308 
C     0.2785869    2.5806869    2.4331116 
C     2.0144887    3.7243774   -0.2452581 
C     2.2071890    3.0286190    1.0326288 
C     0.4665317    3.3842499   -1.9729875 
C     1.7731201    2.9572347   -1.4293761 
C    -0.3504970    2.3936101   -2.5007561 
C    -2.0515747    2.8534334   -0.7598925 
C    -1.6845389    2.2161680   -1.9934458 
C    -1.9695942    1.8936327    1.5661900 
C    -2.6250201    1.9554748    0.2552537 
C    -1.7853593    0.6072229    2.2325912 
C     0.6298206    1.2186481    2.5540289 
C    -0.4457690    0.2528467    2.7140268 
C     2.5032144    1.6626298    1.0092192 
C     1.8865571    0.7696685    1.9915054 
C     2.1546052    1.5994792   -1.4906619 
C     2.7752650    1.0430123   -0.2938338 
C     0.1637867    1.0691670   -2.8168092 
C     1.4347341    0.6567438   -2.3535872 
C    -2.0689668    0.8570994   -2.2951236 
C    -0.9243011    0.1326157   -2.8173882 
C    -3.2734228    0.7863055   -0.1871843 
C    -2.9878126    0.2051642   -1.5032477 
C    -2.6543933   -0.4521214    1.8767796 
C    -3.4391492   -0.3106981    0.6891410 
C    -2.2548110   -1.8462602    1.9663118 
C    -0.0883814   -1.1058852    2.8080718 
C    -1.0049558   -2.1755934    2.4693628 
C     2.1841596   -0.6355425    1.9486740 
C     1.2469069   -1.5654056    2.4849551 
C     3.0907984   -0.2988950   -0.3163428 
C     3.0386176   -1.1181933    0.8953779 
C     1.6928329   -0.7700941   -2.2870177 
C     2.7741955   -1.1604430   -1.4429802 
C    -0.7486430   -1.2584014   -2.6060710 
C     0.6261887   -1.7528316   -2.5399767 
C    -2.9247479   -1.2328285   -1.3766547 
C    -3.3617267   -1.5442005   -0.0498118 
C    -2.7186197   -2.5271111    0.7498189 
C    -1.8428243   -1.9826977   -1.9423188 
C    -1.9006952   -3.4561958    0.1248369 
C    -1.5235258   -3.2237497   -1.2886786 
C    -0.2440027   -3.2968617    1.9410135 
C     1.1647016   -2.9375846    2.0147627 
C    -0.7347681   -3.9884329    0.8080750 
C     3.0104023   -2.4608177    0.5021561 
C     2.9006467   -2.4933980   -0.9789306 
C     2.0847458   -3.4100422    1.0340168 
C     0.8250443   -3.1070246   -2.1040068 
C    -0.2676980   -3.8027312   -1.4887548 
C     0.2018144   -4.3794820   -0.2092151 
C     1.9953853   -3.4694881   -1.3414577 
C     1.5593169   -4.1555506   -0.0939105 
