60 

C    -2.8070567   -3.3820791    0.4231481 
C    -1.5056887   -3.8145748    0.8097702 
C    -0.9930162   -2.9387971    1.8238017 
C    -3.1255985   -2.2191655    1.1883588 
C    -2.0009210   -1.9014005    2.0348156 
C    -3.5099417   -1.1703274    0.2922419 
C    -2.6334283   -2.9064302   -0.9294458 
C    -3.0990896   -1.5715830   -1.0480298 
C    -0.6817644   -3.9945516   -0.3656883 
C    -1.3267027   -3.2298329   -1.4290420 
C     0.6843037   -3.9181823   -0.2008208 
C     0.3956059   -2.6374764    1.8977518 
C     1.2639618   -3.3638852    1.0187361 
C     0.7896545   -1.2844332    2.3550167 
C    -1.6274043   -0.5471377    2.2859637 
C    -0.2232028   -0.2229125    2.5043861 
C    -3.4189145    0.1654724    0.6942743 
C    -2.5530761    0.4965075    1.8240546 
C    -3.4783944    1.0867330   -0.3940561 
C    -2.4090907   -0.6121453   -1.8553072 
C    -2.8028339    0.7125338   -1.6274284 
C    -0.5506920   -2.2553989   -2.1626121 
C    -1.0494719   -0.8954061   -2.3535370 
C     1.4639003   -3.4101804   -1.2891364 
C     0.8653116   -2.4586335   -2.1676810 
C     2.5446346   -2.8112653    0.6486955 
C     2.6886632   -2.8709587   -0.7890796 
C     2.1422364   -0.9108377    2.1841254 
C     3.0389239   -1.6937701    1.3279474 
C     2.5479941    0.4808136    2.0874782 
C     0.1957746    1.1846471    2.4650591 
C     1.6003246    1.5423496    2.1754698 
C    -2.1557403    1.8427193    1.9440885 
C    -0.7884416    2.1824511    2.2574209 
C    -3.2332826    2.4535887   -0.1772249 
C    -2.6487230    2.8453027    1.0303163 
C    -1.9933778    1.8420264   -2.0254783 
C    -2.3852088    2.9739089   -1.2629274 
C    -0.1230939    0.2148132   -2.5255481 
C    -0.6073772    1.6005636   -2.3935642 
C     1.7903107   -1.3476729   -2.2938356 
C     2.9796244   -1.6673263   -1.4945895 
C     1.3324798   -0.0259058   -2.4346859 
C     3.8369629   -0.7643327    0.6040105 
C     3.6179481    0.5426784    1.1469481 
C     3.6616993   -0.6511052   -0.8259975 
C     2.2392097    1.0530183   -1.9832907 
C     3.5450838    1.4958834    0.0878825 
C     3.3502671    0.7253999   -1.1377720 
C     1.8936747    2.7376144    1.4426032 
C     2.8121555    2.6450940    0.3056705 
C    -0.4685162    3.4369869    1.5513083 
C    -1.5702181    3.7888138    0.7420114 
C    -1.4021448    3.8271581   -0.6971573 
C     0.8355533    3.6368642    1.0545207 
C     0.2977621    2.6564090   -2.1027821 
C     1.7168743    2.3722990   -1.8596560 
C     2.1441879    3.2236978   -0.8114991 
C    -0.0944618    3.7610252   -1.2316846 
C     0.9917917    3.9503349   -0.3383182 
