60 

C     0.5025905   -4.6596543    0.2977816 
C    -0.5373494   -4.2047874    1.2209740 
C    -1.6747617   -3.9380977    0.4672170 
C     0.0556888   -4.3178992   -1.0714277 
C    -1.2907116   -3.9770511   -0.9966040 
C     0.9709772   -3.3694322   -1.6443912 
C     1.6582930   -3.9468373    0.5529929 
C     2.0864707   -3.3385355   -0.7066521 
C     0.0019344   -3.1169388    2.0152724 
C     1.4008147   -2.9993642    1.6553557 
C    -0.7376784   -1.9201758    2.2558058 
C    -2.4411259   -2.7820840    0.6847334 
C    -2.0845744   -1.8010320    1.6706783 
C    -1.7746869   -2.7939714   -1.5788944 
C    -2.7625422   -2.2692926   -0.6449635 
C     0.5234499   -2.1108206   -2.2156645 
C    -0.9020960   -1.8267761   -2.2301680 
C     1.4493704   -0.9666290   -2.2367156 
C     2.8626481   -2.2357404   -0.6310504 
C     2.7187195   -1.1612555   -1.5888836 
C     2.0966402   -1.7730022    1.7117016 
C     3.1108538   -1.6010133    0.6891613 
C     0.0142853   -0.6881161    2.5304153 
C     1.4450144   -0.5835514    2.2560651 
C    -0.7248106    0.5182747    2.6255873 
C    -2.7212160   -0.5026125    1.5474435 
C    -2.1035178    0.6121791    2.1807877 
C    -3.2428886   -1.0229767   -0.8020464 
C    -3.5098760   -0.2064085    0.3731776 
C    -1.3748915   -0.4510829   -2.3503566 
C    -2.7033625   -0.1680102   -1.8529372 
C     0.9798442    0.4120782   -2.3923369 
C    -0.4508644    0.6775112   -2.4842693 
C     1.8771508    1.5268386   -2.0137928 
C     3.4278094   -0.0705631   -1.0364832 
C     3.5760970   -0.3378877    0.4221523 
C     3.0501987    1.2340624   -1.2076695 
C     2.0391249    0.7378834    2.0311011 
C     3.1319748    0.8150735    1.1063994 
C     3.1610039    1.8853665    0.1254980 
C    -0.1170567    1.8211047    2.5361715 
C     1.2590762    1.9668911    2.2016194 
C    -2.3250899    1.9700945    1.7551570 
C    -1.1227651    2.7420515    2.0434853 
C    -3.6007131    1.1109275   -0.1048560 
C    -3.0786291    1.1273889   -1.4824308 
C    -3.0376468    2.2184979    0.5634984 
C    -0.9393143    2.0503150   -2.2426651 
C    -2.2426014    2.2412408   -1.6499093 
C    -2.3915039    3.0625593   -0.4511066 
C     1.3911521    2.8379105   -1.8462995 
C    -0.0239512    3.1141532   -1.9891707 
C     2.5340151    3.0662040    0.3442718 
C     1.6284912    3.1760026    1.4966394 
C     1.9446343    3.7307490   -0.8067781 
C    -0.7589634    3.8327138    1.2524103 
C    -1.3866082    3.9387480   -0.0960314 
C    -0.3383500    4.1458065   -1.0380442 
C     0.6325958    4.1100477    1.0892806 
C     0.8692277    4.4589257   -0.3102363 
