60 

C    -2.1449756   -2.1449756   -2.4069799 
C    -2.5240503   -0.7786285   -2.6277695 
C    -3.0856986   -0.2572823   -1.3899323 
C    -2.4496333   -2.4496333   -1.0439362 
C    -3.0543268   -1.3254520   -0.4069344 
C    -1.3254520   -3.0543268   -0.4069344 
C    -0.7786285   -2.5240503   -2.6277695 
C    -0.2572823   -3.0856986   -1.3899323 
C     0.0513812   -1.7148110   -3.4075725 
C    -1.7148110    0.0513812   -3.4075725 
C    -0.5024239   -0.5024239   -3.9619028 
C    -1.4105665    1.4105665   -2.9638789 
C    -2.8619617    1.0811617   -0.9863476 
C    -1.9283333    1.9283333   -1.7503463 
C    -3.0543268    1.3254520    0.4069344 
C    -2.8619617   -1.0811617    0.9863476 
C    -3.0856986    0.2572823    1.3899323 
C    -1.0811617   -2.8619617    0.9863476 
C    -1.9283333   -1.9283333    1.7503463 
C     0.2572823   -3.0856986    1.3899323 
C     1.0811617   -2.8619617   -0.9863476 
C     1.3254520   -3.0543268    0.4069344 
C     1.4105665   -1.4105665   -2.9638789 
C     1.9283333   -1.9283333   -1.7503463 
C     0.5024239    0.5024239   -3.9619028 
C    -0.0513812    1.7148110   -3.4075725 
C     1.7148110   -0.0513812   -3.4075725 
C     0.7786285    2.5240503   -2.6277695 
C    -1.0811617    2.8619617   -0.9863476 
C     0.2572823    3.0856986   -1.3899323 
C    -2.4496333    2.4496333    1.0439362 
C    -1.3254520    3.0543268    0.4069344 
C    -2.5240503    0.7786285    2.6277695 
C    -2.1449756    2.1449756    2.4069799 
C    -1.4105665   -1.4105665    2.9638789 
C    -1.7148110   -0.0513812    3.4075725 
C     0.7786285   -2.5240503    2.6277695 
C    -0.0513812   -1.7148110    3.4075725 
C     2.4496333   -2.4496333    1.0439362 
C     2.1449756   -2.1449756    2.4069799 
C     2.8619617   -1.0811617   -0.9863476 
C     3.0543268   -1.3254520    0.4069344 
C     2.5240503    0.7786285   -2.6277695 
C     2.1449756    2.1449756   -2.4069799 
C     3.0856986    0.2572823   -1.3899323 
C     1.3254520    3.0543268   -0.4069344 
C     2.4496333    2.4496333   -1.0439362 
C     3.0543268    1.3254520   -0.4069344 
C    -0.2572823    3.0856986    1.3899323 
C    -0.7786285    2.5240503    2.6277695 
C     1.0811617    2.8619617    0.9863476 
C    -0.5024239    0.5024239    3.9619028 
C     0.5024239   -0.5024239    3.9619028 
C     0.0513812    1.7148110    3.4075725 
C     2.5240503   -0.7786285    2.6277695 
C     3.0856986   -0.2572823    1.3899323 
C     2.8619617    1.0811617    0.9863476 
C     1.9283333    1.9283333    1.7503463 
C     1.7148110    0.0513812    3.4075725 
C     1.4105665    1.4105665    2.9638789 
