60 

C     1.0873115    4.3808790    0.0000000 
C     0.2793613    4.0848373    1.1499350 
C     0.9422204    3.1132985    1.9577526 
C     2.1972694    3.4980233    0.0000000 
C     2.1475966    2.7231722    1.2158356 
C     2.1475966    2.7231722   -1.2158356 
C     0.2793613    4.0848373   -1.1499350 
C     0.9422204    3.1132985   -1.9577526 
C    -1.0880465    3.8530692    0.7385174 
C    -1.0880465    3.8530692   -0.7385174 
C    -1.8374843    2.8901930    1.4140820 
C     0.1848138    2.1135869    2.6420683 
C    -1.2295981    2.0478525    2.4289475 
C     0.8360291    0.8797004    2.9187620 
C     2.6230809    1.3870759    1.2522090 
C     2.1011103    0.5581006    2.2877303 
C     2.6230809    1.3870759   -1.2522090 
C     3.0289216    0.7297377    0.0000000 
C     2.1011103    0.5581006   -2.2877303 
C     0.1848138    2.1135869   -2.6420683 
C     0.8360291    0.8797004   -2.9187620 
C    -1.8374843    2.8901930   -1.4140820 
C    -1.2295981    2.0478525   -2.4289475 
C    -2.7966125    2.0599212    0.6965834 
C    -2.7966125    2.0599212   -0.6965834 
C    -1.9107185    0.7713104    2.4352199 
C    -2.9160184    0.7984029    1.4036511 
C     0.1244078   -0.3504641    3.1082347 
C    -1.2617408   -0.4583533    2.7790672 
C     2.2399962   -0.8667161    2.2584442 
C     1.0376601   -1.4434234    2.8361207 
C     3.1630272   -0.6756738    0.0000000 
C     2.8320446   -1.4844882    1.1582595 
C     2.2399962   -0.8667161   -2.2584442 
C     2.8320446   -1.4844882   -1.1582595 
C     0.1244078   -0.3504641   -3.1082347 
C     1.0376601   -1.4434234   -2.8361207 
C    -1.9107185    0.7713104   -2.4352199 
C    -2.9160184    0.7984029   -1.4036511 
C    -1.2617408   -0.4583533   -2.7790672 
C    -3.2349813   -0.3737458    0.7234899 
C    -3.2349813   -0.3737458   -0.7234899 
C    -1.7435118   -1.7198734    2.2035302 
C    -2.7242321   -1.6473632    1.1673265 
C     0.5806417   -2.6751763    2.4225284 
C    -0.8495192   -2.8596958    2.1632551 
C     2.3728267   -2.7974011    0.7267936 
C     2.3728267   -2.7974011   -0.7267936 
C     1.3384465   -3.4484718    1.4317239 
C     0.5806417   -2.6751763   -2.4225284 
C     1.3384465   -3.4484718   -1.4317239 
C    -1.7435118   -1.7198734   -2.2035302 
C    -2.7242321   -1.6473632   -1.1673265 
C    -2.6251143   -2.5055360    0.0000000 
C    -0.8495192   -2.8596958   -2.1632551 
C    -0.9636075   -3.8426041    1.1582627 
C     0.3817728   -4.2173742    0.7003373 
C     0.3817728   -4.2173742   -0.7003373 
C    -1.7832912   -3.6181711    0.0000000 
C    -0.9636075   -3.8426041   -1.1582627 
