60 

C    -0.7808570   -4.1281179   -0.1336889 
C    -1.8605367   -3.5969301    0.5306092 
C    -1.3961098   -3.0985476    1.8379617 
C     0.3793582   -4.1046191    0.7977741 
C     0.0240317   -3.2423333    1.8955065 
C     1.4938061   -3.8096635    0.0345875 
C    -0.3540619   -3.5569205   -1.3988875 
C     1.0624987   -3.4998965   -1.3417565 
C    -1.0662686   -2.4601459   -1.9822125 
C    -2.6692920   -2.5889309   -0.0707767 
C    -2.3693110   -2.1014524   -1.3896740 
C    -2.0062678   -1.8668044    2.0398663 
C    -2.9725969   -1.6260301    0.9616816 
C    -1.2397602   -0.7603637    2.5726274 
C     0.8642169   -2.0972980    2.2336337 
C     0.2282976   -0.8484987    2.6399549 
C     2.4471442   -2.8486177    0.4367200 
C     2.1898652   -2.0383350    1.6092505 
C     1.8228202   -2.3968767   -1.7835403 
C     2.8584124   -2.1649591   -0.7800629 
C    -0.2655895   -1.3829848   -2.5983910 
C     1.1851292   -1.2819342   -2.4009524 
C    -0.9374938   -0.1836827   -2.9483806 
C    -2.9391128   -0.8381574   -1.7066495 
C    -2.3211560   -0.0090423   -2.6821445 
C    -3.4037992   -0.3228700    0.6650396 
C    -3.5391357    0.0382125   -0.7098005 
C    -1.8790749    0.4830627    2.4827618 
C    -3.0259706    0.6912034    1.6116274 
C    -1.1323599    1.7415615    2.5771435 
C     0.9903751    0.4181567    2.6503855 
C     0.2965171    1.7299939    2.5817363 
C     2.9110091   -0.8196259    1.6791681 
C     2.3431603    0.3862769    2.2539219 
C     3.4722995   -0.9447464   -0.7112414 
C     3.7257686   -0.4031469    0.5831916 
C     1.8527904    0.0422116   -2.3275513 
C     3.0459511    0.1585916   -1.5696652 
C    -0.2995536    1.1269630   -2.8744681 
C     1.0665018    1.2762260   -2.5398671 
C    -2.5444739    1.3702771   -2.3452133 
C    -3.2825675    1.4090795   -1.1328578 
C    -1.3039738    2.0678798   -2.4390482 
C    -2.9622697    2.0384538    1.1959235 
C    -1.8562584    2.7122888    1.8627160 
C    -2.9535915    2.4029893   -0.1749907 
C    -0.9567411    3.1187132   -1.5100472 
C    -1.2139069    3.5673139    0.9308460 
C    -1.8175595    3.3078101   -0.3827073 
C     0.9245202    2.8562850    1.9612869 
C     0.1620566    3.7297459    1.0639748 
C     2.9656325    1.5414738    1.5905048 
C     3.7137459    1.0233140    0.4899287 
C     3.3627272    1.3915144   -0.8571427 
C     2.2549624    2.7233164    1.3943760 
C     1.4559799    2.5088370   -1.9296189 
C     0.4409653    3.3973833   -1.3676720 
C     0.9500459    3.8761191   -0.1221406 
C     2.6010207    2.5466545   -1.0495135 
C     2.2580399    3.3396229    0.0959574 
