60 

C     1.7103407    3.4486433    1.0767500 
C     0.8253142    3.9213010    0.1166410 
C     1.3440408    3.5510173   -1.2156441 
C     2.8125470    2.7975160    0.3850723 
C     2.5202108    2.7625665   -1.0354154 
C     3.1053975    1.6107923    1.0790780 
C     1.2454612    2.5784783    2.1336946 
C     2.1643528    1.4682358    2.2047867 
C    -0.1548652    2.3814557    2.3252420 
C    -0.5619685    3.6148756    0.1776384 
C    -1.0989953    2.9593427    1.3403295 
C     0.2506298    3.0730400   -1.9615227 
C    -0.9763721    3.1907563   -1.1478572 
C     0.4056962    1.9346618   -2.7625104 
C     2.6558201    1.5131052   -1.7509761 
C     1.6177625    1.1634356   -2.6780280 
C     3.4729400    0.4668590    0.3601050 
C     3.2738911    0.4137593   -1.0652968 
C     3.2285896   -0.8510070    0.9029811 
C     1.7504244    0.1809347    2.6235571 
C     2.3716726   -1.0155694    2.0274794 
C    -0.5263839    1.1467928    2.9401693 
C     0.4117881    0.0821635    3.1089346 
C    -1.8478575    0.5643010    2.7665642 
C    -2.3522610    2.3416970    1.1471628 
C    -2.7957203    1.2036112    1.9727021 
C    -2.0771887    2.3396044   -1.3380388 
C    -2.9051111    2.1468938   -0.1752628 
C    -0.7028414    1.0256382   -2.9504782 
C    -1.9696932    1.2284939   -2.3265945 
C     1.2650447   -0.2222167   -2.9355705 
C    -0.1612154   -0.2945486   -3.1282148 
C     2.9985734   -0.9716329   -1.4045890 
C     3.1579968   -1.7727415   -0.2140597 
C     1.9726934   -1.3038039   -2.3511735 
C     2.4974443   -3.0037778   -0.0781387 
C     1.6673059   -2.2829529    2.1314757 
C     1.8391427   -3.2862140    1.1730950 
C    -0.3334006   -1.1621893    3.0087065 
C    -1.7120707   -0.8734764    2.6922122 
C     0.2562162   -2.3100786    2.5470585 
C    -2.4294937   -1.6614369    1.7330759 
C    -3.6949227    0.4101474    1.2231683 
C    -3.7730962    1.0222952   -0.1064320 
C    -3.4796910   -0.9847986    1.0270260 
C    -2.7919551    0.0655899   -2.1402607 
C    -3.7720166    0.0220779   -1.0783904 
C    -3.6655379   -1.2470386   -0.3985605 
C    -0.9071208   -1.4489724   -2.7202217 
C    -2.2260953   -1.2447046   -2.2322638 
C    -2.7152778   -2.0184270   -1.0782885 
C     1.2474698   -2.5504703   -2.1512098 
C     1.6213357   -3.4346896   -1.1195740 
C    -0.2017962   -2.5757239   -2.2538001 
C     0.5123483   -3.8625772    0.8780889 
C    -0.4809016   -3.2053081    1.6616951 
C    -1.7072028   -2.7693043    1.0734001 
C    -1.8417499   -2.9209049   -0.3867690 
C     0.3906242   -3.9653907   -0.5045724 
C    -0.7302722   -3.3901263   -1.1481762 
