60 

C    -0.6353624    4.1736486   -0.3695949 
C     0.4619080    4.1943050    0.4873572 
C     0.0350141    3.6374419    1.7912791 
C    -1.7906906    3.6635434    0.3741647 
C    -1.3490285    3.2991097    1.6961284 
C    -2.4443275    2.7086509   -0.4250539 
C    -0.5603797    3.4590419   -1.6169113 
C    -1.7115362    2.5847437   -1.6912983 
C     0.6752488    2.9612629   -2.0523388 
C     1.7024501    3.5957497    0.1109824 
C     1.8459693    3.0799106   -1.1987248 
C     0.9931405    2.6786172    2.1789960 
C     2.1044882    2.7508413    1.2306751 
C     0.5937915    1.3839502    2.7209988 
C    -1.7629217    2.0599484    2.2295467 
C    -0.7981899    1.1575726    2.8314001 
C    -3.0380055    1.5304990    0.1772040 
C    -2.7186876    1.2446212    1.5451916 
C    -3.2846330    0.4466856   -0.6899764 
C    -1.6741339    1.3448139   -2.3722341 
C    -2.6671809    0.3962808   -1.9796601 
C     0.7418700    1.6645990   -2.7231787 
C    -0.3949199    0.8335714   -2.8992828 
C     2.6635332    1.9038264   -1.4158375 
C     2.0337537    1.0855977   -2.4360364 
C     2.8672718    1.6225929    1.0183576 
C     3.2629647    1.2476266   -0.3330057 
C     1.4728445    0.2188914    2.5662220 
C     2.6481630    0.4050612    1.7795606 
C     0.9475110   -1.1453920    2.7192809 
C    -1.3318066   -0.1873312    2.7514492 
C    -2.5214299   -0.1371806    1.9613362 
C    -0.5084647   -1.3376759    2.7947810 
C    -3.3635840   -0.9441596   -0.1947700 
C    -2.8991059   -1.2379174    1.1452105 
C    -2.5130804   -0.9865298   -2.3070266 
C    -3.0604040   -1.8139166   -1.2541765 
C    -0.1793794   -0.6245483   -2.9778498 
C    -1.2677679   -1.5140194   -2.6837026 
C     2.2143596   -0.2951442   -2.4505787 
C     1.1135159   -1.1620873   -2.7596028 
C     3.4431485   -0.1848441   -0.3495613 
C     3.1838571   -0.6784365    1.0005575 
C     3.0221320   -0.9475923   -1.4421139 
C     1.7223248   -2.2302997    2.1905896 
C     2.7463776   -1.9677628    1.2091873 
C     1.0993250   -3.4629321    1.7881024 
C    -1.1059761   -2.5451337    2.2763439 
C    -2.2226651   -2.4677169    1.3626382 
C    -0.2711237   -3.6140524    1.8318531 
C    -2.1991375   -2.9433721   -1.0737659 
C    -1.0803928   -2.7985091   -1.9796764 
C    -1.9480273   -3.3972188    0.2372337 
C    -0.7407807   -4.0572710    0.5085111 
C     1.3160364   -2.4313542   -2.0505953 
C     2.4844760   -2.2758494   -1.2376439 
C     2.5157658   -2.8671649    0.0571648 
C     1.5395453   -3.7956174    0.4193594 
C     0.2223637   -3.2655035   -1.6302520 
C     0.3699734   -4.0164718   -0.3972137 
