60 

C     1.3003586   -4.3239880   -0.8869119 
C     0.7499426   -4.5676093    0.3701875 
C    -0.6552858   -4.1880054    0.3291932 
C     0.2712971   -3.7888877   -1.7629767 
C    -0.9715513   -3.7314690   -1.0093793 
C     0.7612372   -2.5789335   -2.3095652 
C     2.3527676   -3.3232400   -0.7553794 
C     2.0837670   -2.3013437   -1.6906400 
C     1.4163673   -3.6987245    1.3274753 
C     2.4432850   -2.9310403    0.6303686 
C    -0.8921547   -3.2824775    1.3986520 
C     0.4182132   -2.9692677    2.0171090 
C    -1.8760737   -2.2782196    1.2957652 
C    -1.8317894   -2.6280820   -1.1721712 
C    -2.5393049   -2.1230672    0.0083687 
C    -0.1075529   -1.4899466   -2.5864120 
C    -1.4981373   -1.6199420   -2.1919949 
C     0.4817418   -0.1710760   -2.7657190 
C     2.4399407   -0.9670227   -1.4245828 
C     1.8215683    0.0558641   -2.2631266 
C     2.6330192   -1.5708657    0.9613126 
C     2.8983998   -0.6040088   -0.1004807 
C     0.6666333   -1.6663939    2.5000042 
C     1.9298293   -1.0399130    2.1267652 
C    -1.7668075   -1.1211630    2.1911725 
C    -0.4874927   -0.8260447    2.8089643 
C    -2.6830364   -0.0363316    1.9968026 
C    -3.4015004   -1.0122023   -0.1613298 
C    -3.5522461   -0.0451195    0.8929452 
C    -2.3139283   -0.4640641   -2.2700211 
C    -3.3927377   -0.2811823   -1.3767605 
C    -0.3882817    0.9917770   -2.8469006 
C    -1.7519471    0.8403784   -2.5502991 
C     0.1332867    2.3158465   -2.6611723 
C     2.2866321    1.3753524   -2.0904267 
C     1.5151228    2.5155169   -2.5338585 
C     3.0373368    0.8049330    0.2168555 
C     2.9234035    1.7559357   -0.8437330 
C     2.1061355    0.3227075    2.4363051 
C     2.7422925    1.2513841    1.5362887 
C    -0.2241840    0.5207466    3.2032636 
C     1.0863477    1.0245738    3.1483637 
C    -2.2839707    1.3599143    2.2024168 
C    -1.0942617    1.6328593    2.8121096 
C    -3.6015871    1.3020069    0.3231394 
C    -3.4861408    1.1558322   -1.0652769 
C    -2.4592630    1.8383961   -1.7376634 
C    -2.7223219    2.1516038    1.0554618 
C    -0.5366094    3.2706354   -1.7376310 
C    -1.7205005    2.8876629   -1.0760562 
C    -1.7985424    3.0206697    0.3934204 
C     1.7528231    3.6283432   -1.6392852 
C     2.5356601    3.1273014   -0.5778013 
C     0.4877344    3.9949709   -1.0656117 
C     2.1152805    2.5677922    1.7474580 
C     1.0605196    2.3937241    2.6808166 
C    -0.2788444    2.7487986    2.3584490 
C    -0.5806468    3.4240104    1.1189379 
C     1.8978881    3.4405283    0.6858182 
C     0.5478692    3.9095659    0.3789767 
