60 

C     1.6199355   -4.3097817   -0.2106020 
C     0.8848516   -4.3956557    1.0168230 
C    -0.4991194   -4.1415743    0.7530681 
C     0.6967324   -3.9153917   -1.2476023 
C    -0.6360188   -3.8575323   -0.6685900 
C     1.2031890   -2.7301307   -1.8852555 
C     2.6114275   -3.2767748   -0.0900007 
C     2.4478501   -2.3824616   -1.2082458 
C     1.3626306   -3.3394886    1.8870015 
C     2.4526020   -2.6671351    1.2288978 
C    -0.9331778   -3.0981233    1.6403503 
C     0.2549515   -2.5395881    2.2997648 
C    -1.9768252   -2.2562527    1.2714715 
C    -1.5277064   -2.8642544   -1.0897476 
C    -2.4784183   -2.3542361   -0.1035397 
C     0.3308413   -1.6909499   -2.3154772 
C    -1.0956499   -1.8981432   -2.1169406 
C     0.8434603   -0.3303271   -2.4371536 
C     2.8236866   -1.0521688   -1.0944615 
C     2.1860370   -0.0632881   -1.9594931 
C     2.5934840   -1.2757821    1.3596262 
C     3.2153563   -0.5848304    0.2371701 
C     0.3668675   -1.1263004    2.4538400 
C     1.6424536   -0.4900485    2.1350734 
C    -2.0847049   -0.9694197    1.9525732 
C    -0.8532072   -0.3369228    2.4358863 
C    -3.2092953   -0.1739717    1.6019007 
C    -3.4235316   -1.4081777   -0.5326394 
C    -3.9455067   -0.4514473    0.3884932 
C    -1.9510340   -0.8224408   -2.4050973 
C    -3.2317512   -0.7363731   -1.7932119 
C    -0.0706006    0.8047069   -2.5385833 
C    -1.4517126    0.5311206   -2.5786661 
C     0.3413163    2.1649767   -2.1596892 
C     2.6243914    1.2668221   -1.8361480 
C     1.7306858    2.4089570   -2.0060846 
C     3.5042551    0.7499228    0.3910255 
C     3.5530451    1.6047187   -0.7745528 
C     1.7592065    0.9563032    2.1302874 
C     2.9017801    1.5310683    1.4708922 
C    -0.7454924    1.1156327    2.4430865 
C     0.5555514    1.7689946    2.3130363 
C    -3.1220096    1.2377719    1.7306708 
C    -1.9180112    1.8658224    2.0853005 
C    -4.1311342    0.8189246   -0.3209528 
C    -3.5730995    0.6582275   -1.6211693 
C    -2.4468702    1.4456271   -2.0323413 
C    -3.6409466    1.8481059    0.4889401 
C    -0.6203212    2.9996489   -1.4144186 
C    -1.7732376    2.9922296    1.1654471 
C    -1.9972831    2.5650077   -1.2552465 
C    -2.6502550    2.7588123    0.0276880 
C     0.5864081    3.1143201    1.7829106 
C    -0.0682307    3.8218188   -0.3722462 
C    -0.5569440    3.5438417    0.9780073 
C     2.2291755    3.4648387   -1.1458696 
C     3.3341255    2.9328045   -0.3744878 
C     2.9148610    2.8989037    1.0299421 
C     1.3128120    4.0354578   -0.2464478 
C     1.7281241    3.6335856    1.1357881 
