60 

C    -0.3703347    4.4728087   -1.0374679 
C    -1.5834286    3.7628307   -1.3580952 
C    -2.3105567    3.5504691   -0.1629175 
C    -0.2233604    4.4123809    0.4189671 
C    -1.4071606    3.8970133    0.9679258 
C     0.9960742    3.7367832    0.7466208 
C     0.7044369    3.7314920   -1.5677276 
C     1.6518507    3.4350516   -0.5218961 
C    -1.2456249    2.5841986   -2.1372226 
C     0.2029686    2.5756523   -2.2901231 
C    -1.9127462    1.3580903   -1.9436678 
C    -2.9067600    2.3120565    0.1068424 
C    -2.8873563    1.2453536   -0.8531669 
C    -1.4167671    2.7885129    1.8719978 
C    -2.5340958    1.9513129    1.4769114 
C     1.0294149    2.7137556    1.7655651 
C    -0.2072824    2.1460272    2.3008003 
C     2.1580213    1.8778117    1.7336545 
C     2.5225571    2.3518701   -0.6578082 
C     3.0482037    1.8619431    0.5833395 
C     0.9545272    1.3698656   -2.3436046 
C     2.2817893    1.3669356   -1.7268711 
C    -1.2131347    0.1431160   -2.3834696 
C     0.2376646    0.1224184   -2.5446165 
C    -1.8848355   -1.0748730   -2.2037650 
C    -3.2415319   -0.0667723   -0.3802195 
C    -2.9877466   -1.1719937   -1.2503516 
C    -2.5941831    0.6504657    1.8772084 
C    -3.2012032   -0.3434385    1.0283674 
C    -0.2387070    0.7036007    2.6455346 
C    -1.4830059    0.0298003    2.5574982 
C     2.1810835    0.5291196    2.2978480 
C     0.9528039   -0.1396581    2.5941637 
C     3.7808350    0.6678768    0.6184467 
C     3.2759053   -0.1607679    1.7254807 
C     2.9547952    0.1348198   -1.6427645 
C     3.8364314   -0.1452810   -0.5173068 
C     0.9416604   -1.1528461   -2.4214420 
C     2.2977136   -1.0985956   -2.0049215 
C    -1.2233474   -2.3707622   -2.2694881 
C     0.2050350   -2.4218826   -2.2509549 
C    -3.0066299   -2.4889767   -0.7659402 
C    -2.0114146   -3.2803683   -1.4891982 
C    -2.7561318   -1.6195167    1.4977652 
C    -1.5944336   -1.3896955    2.3497415 
C    -2.8121554   -2.7380585    0.6459855 
C     0.8652907   -1.5885180    2.3339827 
C    -0.4477986   -2.2298928    2.2686895 
C     3.1401910   -1.4913556    1.2771089 
C     3.6114061   -1.5067415   -0.1067702 
C     2.8044196   -2.1291046   -1.0906088 
C     1.9829482   -2.2444743    1.6360117 
C     0.7986873   -3.4782303   -1.4470534 
C     1.9863957   -3.1605334   -0.6947188 
C     1.6807922   -3.3336167    0.7420758 
C    -1.3950255   -4.1555538   -0.5730574 
C    -1.8149819   -3.7370213    0.7889782 
C    -0.6284022   -3.4918481    1.5607697 
C    -0.0117040   -4.2679228   -0.5791522 
C     0.4679436   -4.0051328    0.7980870 
