60 

C    -2.7306082   -3.4269335   -0.2006315 
C    -1.4409167   -3.9436395    0.0638765 
C    -0.9542642   -3.4746953    1.3549766 
C    -3.0061423   -2.5015958    0.8348462 
C    -1.9129066   -2.4864745    1.7996556 
C    -3.3797122   -1.2476377    0.2769115 
C    -2.6135418   -2.6151123   -1.4185637 
C    -3.1009552   -1.3146077   -1.1669487 
C    -0.5970878   -3.7159830   -1.0842595 
C    -1.2941845   -2.7244038   -1.9418868 
C     0.7583649   -3.6449770   -0.9081805 
C     0.4429012   -3.2962550    1.5470317 
C     1.3306401   -3.6339714    0.4506364 
C     0.8417328   -2.2045358    2.3848128 
C    -1.4849693   -1.2485722    2.3720210 
C    -0.1231588   -1.1776468    2.7687017 
C    -3.1449548   -0.0470714    0.9619409 
C    -2.1640943    0.0158903    2.0427209 
C    -3.3376016    1.0972470    0.1418906 
C    -2.5200267   -0.1859962   -1.8209016 
C    -2.9074450    1.0455177   -1.2679817 
C    -0.5740694   -1.5910150   -2.4700499 
C    -1.2330156   -0.2862672   -2.4917679 
C     1.5412165   -2.7590448   -1.7468401 
C     0.8837387   -1.6780109   -2.4631542 
C     2.5704612   -2.9847076    0.3360087 
C     2.7332975   -2.5030435   -1.0433473 
C     2.1220411   -1.5638224    2.2517052 
C     2.9914605   -1.9380235    1.2022139 
C     0.5590774    0.0759621    2.8846696 
C     1.9541107   -0.1634605    2.5834965 
C    -1.5071179    1.2850672    2.2817393 
C    -0.0744640    1.3136627    2.6050479 
C    -3.0276389    2.3519549    0.6194881 
C    -2.0795490    2.4907455    1.6969972 
C    -2.2878733    2.2986456   -1.5998119 
C    -2.5633302    3.1861024   -0.5016524 
C    -0.4587739    0.9469476   -2.6407179 
C    -0.9929483    2.2678336   -2.2280954 
C     1.6169192   -0.4734291   -2.6025117 
C     0.9513532    0.8013070   -2.7263533 
C     3.3548676   -1.2322910   -1.0207939 
C     3.5979395   -0.8825525    0.3811274 
C     2.8754768   -0.2538225   -1.9034845 
C     2.6830574    0.8140286    1.9175777 
C     3.4911484    0.4457305    0.7620571 
C     0.7694647    2.4140925    2.1125296 
C     2.0964968    2.1085636    1.6880137 
C    -1.2718113    3.6205936    1.3885884 
C    -1.5913944    4.0353487   -0.0073388 
C     0.1398248    3.5501983    1.4750858 
C    -0.0698862    3.3132413   -1.8256072 
C    -0.3853863    4.1688347   -0.7189047 
C     0.7016222    4.0726054    0.2453090 
C     1.8443428    1.8207271   -2.1950030 
C     2.9466896    1.1350166   -1.5425043 
C     3.3002867    1.4968705   -0.2263231 
C     2.5894839    2.5805316    0.3974318 
C     1.3450648    3.0015544   -1.6953328 
C     1.7967478    3.4447780   -0.3701610 
