60 

C    -0.7591904   -4.4631560    0.0000000 
C     0.0251358   -4.0801074   -1.1380314 
C    -0.7154962   -3.1722137   -1.9540766 
C    -1.9361267   -3.6556336    0.0000000 
C    -1.9339308   -2.8681275   -1.2052301 
C    -1.9339308   -2.8681275    1.2052301 
C     0.0251358   -4.0801074    1.1380314 
C    -0.7154962   -3.1722137    1.9540766 
C     1.3774434   -3.7276970   -0.7289562 
C     1.3774434   -3.7276970    0.7289562 
C     2.0230725   -2.6924012   -1.4121951 
C    -0.0487149   -2.1381741   -2.6774156 
C     1.3521575   -1.9536224   -2.4590425 
C    -0.8138014   -0.9699593   -2.9884805 
C    -2.5045878   -1.5550045   -1.2450758 
C    -2.0747634   -0.7187594   -2.3046093 
C    -2.5045878   -1.5550045    1.2450758 
C    -2.9461636   -0.9203356    0.0000000 
C    -2.0747634   -0.7187594    2.3046093 
C    -0.0487149   -2.1381741    2.6774156 
C    -0.8138014   -0.9699593    2.9884805 
C     2.0230725   -2.6924012    1.4121951 
C     1.3521575   -1.9536224    2.4590425 
C     2.8416785   -1.7265960   -0.6920092 
C     2.8416785   -1.7265960    0.6920092 
C     1.9093878   -0.6143580   -2.5033478 
C     2.8095535   -0.4549914   -1.4005428 
C    -0.2181325    0.2925257   -3.2736119 
C     1.1750297    0.5020968   -3.0021390 
C    -2.2975969    0.7011343   -2.2889059 
C    -1.1872787    1.3396475   -2.9501142 
C    -3.1437626    0.4844879    0.0000000 
C    -2.8624095    1.3002660   -1.1605045 
C    -2.2975969    0.7011343    2.2889059 
C    -2.8624095    1.3002660    1.1605045 
C    -0.2181325    0.2925257    3.2736119 
C    -1.1872787    1.3396475    2.9501142 
C     1.9093878   -0.6143580    2.5033478 
C     2.8095535   -0.4549914    1.4005428 
C     1.1750297    0.5020968    3.0021390 
C     2.9542858    0.7972824   -0.7333843 
C     2.9542858    0.7972824    0.7333843 
C     1.5827144    1.7929810   -2.5501466 
C     2.4429277    1.9384603   -1.4194908 
C    -0.7784861    2.6150340   -2.5680748 
C     0.6230931    2.8839157   -2.4986520 
C    -2.4153494    2.6193279   -0.7257196 
C    -2.4153494    2.6193279    0.7257196 
C    -1.4101168    3.2933376   -1.4274104 
C    -0.7784861    2.6150340    2.5680748 
C    -1.4101168    3.2933376    1.4274104 
C     1.5827144    1.7929810    2.5501466 
C     2.4429277    1.9384603    1.4194908 
C     0.6230931    2.8839157    2.4986520 
C     2.0078967    3.1473520   -0.6928014 
C     0.8886786    3.7279499   -1.3924788 
C    -0.3597688    3.9980194   -0.7010707 
C    -0.3597688    3.9980194    0.7010707 
C     2.0078967    3.1473520    0.6928014 
C     0.8886786    3.7279499    1.3924788 
