60 

C    -0.1884525    4.4598365    0.0968633 
C    -1.5081309    4.1815363   -0.1338841 
C    -1.6009100    3.4344951   -1.4400419 
C     0.5580984    4.0874071   -1.1417534 
C    -0.2902856    3.2317818   -1.9530264 
C     1.7900158    3.6465505   -0.7748877 
C     0.5130554    3.8118935    1.2076045 
C     1.8148896    3.5448467    0.7141215 
C    -0.1480593    2.7699983    1.9845472 
C    -2.2632068    3.4658590    0.8181537 
C    -1.5707053    2.7023891    1.8422779 
C    -2.5010817    2.3785163   -1.2738933 
C    -3.0204009    2.4881691    0.0841798 
C    -2.1865553    1.0794008   -1.7843499 
C     0.1479664    1.8937994   -2.3018608 
C    -0.8601456    0.8273275   -2.3257465 
C     2.3513249    2.4445814   -1.2940857 
C     1.5542276    1.5256182   -2.0596369 
C     2.5454123    2.4188117    1.0528255 
C     3.1156143    1.9019291   -0.2025068 
C     0.5973440    1.5121757    2.3161881 
C     2.0147214    1.4391291    1.9771804 
C    -0.1024866    0.2479985    2.5367202 
C    -2.2190869    1.4123270    1.9447426 
C    -3.1439664    1.3151113    0.8416380 
C    -1.5492474    0.2333935    2.3504538 
C    -2.9504743   -0.0214404   -1.2154825 
C    -3.3866790    0.0955218    0.1836293 
C    -2.6707175   -1.3090708   -1.6854481 
C    -0.4336268   -0.5631781   -2.4999604 
C    -1.4101447   -1.5794771   -2.3543764 
C     1.9728974    0.1168355   -2.0640031 
C     0.9971295   -0.9297226   -2.4005551 
C     3.5975994    0.6274656   -0.2620895 
C     3.1401762   -0.2604982   -1.3289474 
C     2.6782948    0.1885655    1.9737453 
C     3.6550404   -0.1173857    0.9427333 
C     0.6016959   -1.0482130    2.4844771 
C     1.9953344   -1.0398432    2.2712356 
C    -0.1212628   -2.3182972    2.1662753 
C    -2.2252373   -0.9822294    2.0375861 
C    -3.2664387   -1.0347710    1.0271031 
C    -1.5559444   -2.2695788    2.0257765 
C    -3.0112934   -2.4694948   -0.9008203 
C    -3.2635604   -2.3372103    0.4699798 
C    -2.2575570   -3.1420045    1.1563306 
C    -1.0428174   -2.9600293   -2.0322333 
C    -1.9886833   -3.4886567   -1.1076004 
C    -1.5381878   -3.9225315    0.1867828 
C     1.3361348   -2.2853792   -2.1367962 
C     0.3093044   -3.2932850   -1.8970052 
C     3.3093360   -1.5973363   -0.8230260 
C     3.5587791   -1.4947679    0.6045845 
C     2.6454113   -2.1177313    1.5052934 
C     2.4750204   -2.6115156   -1.2738007 
C     0.5335139   -3.3786737    1.4774506 
C    -0.1617238   -4.0940127    0.3975224 
C     0.7052145   -4.0333605   -0.7379684 
C     1.9183834   -3.2117792    1.0569826 
C     2.0051335   -3.5717971   -0.3291986 
