60 

C    -1.9800463   -3.7490674    0.5768706 
C    -2.7473126   -3.0286253   -0.3475624 
C    -3.3504478   -1.9030542    0.3642561 
C    -1.9089465   -2.9369378    1.8216469 
C    -2.7033705   -1.7755523    1.6432966 
C    -0.5422382   -2.8276533    2.1901356 
C    -0.6904335   -4.1441559    0.2395974 
C     0.2038370   -3.7119678    1.3160320 
C    -0.0819034   -3.7100795   -0.9879771 
C    -2.1368258   -2.4848655   -1.5264692 
C    -0.7651952   -2.7726654   -1.8543123 
C    -3.3879719   -0.7875949   -0.4847119 
C    -2.6428860   -1.1253370   -1.6799099 
C    -3.3588602    0.5187824    0.0644948 
C    -2.2245336   -0.4889059    2.0650270 
C    -2.8207970    0.6826114    1.4245259 
C     0.0141653   -1.5615635    2.5512065 
C    -0.8848575   -0.3969836    2.6265585 
C     1.4461934   -1.3602577    2.2900504 
C     1.4417162   -3.3370627    0.7778664 
C     1.3163173   -3.4759817   -0.6794059 
C     2.1620381   -2.2405631    1.3400935 
C     2.0835047   -2.6728112   -1.4900030 
C     0.0272486   -1.7157641   -2.5308502 
C     1.4428001   -1.7922039   -2.4652909 
C    -1.9283928   -0.1099610   -2.3545323 
C    -0.5640957   -0.3897850   -2.8110001 
C    -3.1305928    1.5399004   -0.8962076 
C    -2.3335970    1.2281246   -2.0600100 
C    -2.7691828    2.8559466   -0.4701707 
C    -2.3082954    1.9610481    1.7650902 
C    -2.4178541    3.0748430    0.8493842 
C    -0.3013239    0.9201940    2.7958346 
C    -1.0403527    2.0778664    2.4264051 
C     1.9830044   -0.0764293    2.5065680 
C     1.1309814    1.0485713    2.8284528 
C     3.0984021    0.4456029    1.7135716 
C     3.1693958   -1.6669077    0.5014453 
C     3.1657613   -1.9557966   -0.8928448 
C     3.5758713   -0.2770857    0.6399804 
C     2.2800794   -0.6027156   -2.5459811 
C     3.3352710   -0.7017283   -1.5943328 
C     3.6110887    0.3506245   -0.6815808 
C     0.2928755    0.7351096   -2.9855702 
C     1.7009949    0.6470942   -2.7434747 
C    -1.4256122    2.3639618   -2.2632421 
C    -1.6971139    3.3778840   -1.3238322 
C    -0.1015910    2.0796408   -2.6150431 
C    -1.1542344    3.8162439    0.8609026 
C    -0.3519113    3.2761938    1.8700799 
C    -0.6525937    3.9049862   -0.4924162 
C     1.7680784    2.2421758    2.3680572 
C     2.8978719    1.8520285    1.5625705 
C     1.0413909    3.2490174    1.6907841 
C     3.0242567    1.6555870   -0.8821508 
C     2.1194049    1.8061718   -1.9780388 
C     0.9884549    2.7099091   -1.9106909 
C     0.7268612    3.5460010   -0.7634620 
C     2.7537636    2.4541117    0.2863594 
C     1.6017403    3.3598305    0.3539300 
