60 

C     2.7204328   -2.7856220   -0.7938160 
C     1.5802451   -3.3609580   -1.3786302 
C     0.7325069   -3.9604907   -0.3541909 
C     2.5214602   -2.8748571    0.6256035 
C     1.2343766   -3.4772426    0.8998607 
C     2.9193080   -1.6690234    1.2389563 
C     3.1250663   -1.4346578   -1.0843789 
C     3.5279385   -0.8604021    0.1873692 
C     2.3880330   -0.6243252   -1.9883015 
C     0.7825674   -2.5951663   -2.2585187 
C     1.2102291   -1.2578486   -2.6294318 
C    -0.6092392   -3.6925193   -0.7266795 
C    -0.6147480   -2.8579831   -1.9226681 
C    -1.5369355   -3.4071540    0.2577942 
C     0.3604943   -2.8431430    1.8399469 
C    -1.0409296   -3.0914353    1.6124177 
C     2.0804347   -1.0323660    2.2199077 
C     0.7444795   -1.5687654    2.4781437 
C     2.3248061    0.3561824    2.4330165 
C     3.6121118    0.5011985    0.3368551 
C     3.2242428    1.0551670    1.5882828 
C     2.4038392    0.8564239   -1.8018345 
C     3.1306854    1.3896609   -0.7105812 
C     1.3320872    1.6896860   -2.3879790 
C     0.1872279   -0.4421799   -3.1171712 
C     0.2887870    1.0275114   -3.1151008 
C    -1.6229092   -1.8919322   -2.1433436 
C    -1.2128961   -0.7991642   -2.9654153 
C    -2.6674350   -2.5367291   -0.0069003 
C    -2.6972025   -1.6790842   -1.1533744 
C    -2.0039681   -2.3071088    2.2447698 
C    -3.0837450   -2.0381533    1.2648598 
C    -0.2943981   -0.6312802    2.8965172 
C    -1.6614934   -1.0705677    2.8473548 
C     1.2508346    1.2986234    2.7601519 
C    -0.0649438    0.8334832    2.8748070 
C     2.7184678    2.3944250    1.3596765 
C     2.7015466    2.6279814   -0.0473413 
C     1.5571707    2.5932551    2.1548290 
C     0.9810868    2.9472091   -1.7978342 
C     1.6575161    3.3979063   -0.5816328 
C    -0.4131343    3.3728140   -1.7057181 
C    -1.0194863    1.5347061   -3.1345555 
C    -1.9292791    0.4099146   -2.9307370 
C    -1.4201159    2.5902632   -2.2784558 
C    -3.2498362   -0.3125757   -0.9809517 
C    -2.8260068    0.7214786   -1.8882084 
C    -2.5222254    2.0866463   -1.4617937 
C    -3.5418530   -0.7492477    1.4338923 
C    -2.7002093   -0.1340236    2.4668183 
C    -3.6077679    0.1434381    0.3283179 
C    -1.1432377    1.7504281    2.4072773 
C    -2.5470678    2.4007852   -0.0672290 
C    -2.4194362    1.1702212    2.0814806 
C    -3.0628835    1.4144923    0.7975466 
C     0.5288175    3.3895048    1.6196769 
C     0.6813736    3.9241042    0.3050732 
C    -0.6060580    3.8726908   -0.3713510 
C    -0.8360163    2.9459651    1.7435120 
C    -1.5527160    3.2898405    0.4794089 
