60 

C    -0.0231265    4.2827651    2.0064557 
C     0.6318447    4.6705197    0.8266086 
C    -0.2438838    4.5249201   -0.3222923 
C    -1.3035492    3.7658908    1.5898126 
C    -1.4616166    3.9201317    0.1362105 
C    -1.4447116    2.4572477    2.1044137 
C     0.7208532    3.1525135    2.5634928 
C    -0.1682426    2.0668704    2.7528973 
C     1.7707995    3.8064006    0.6046512 
C     1.8636520    2.8779340    1.7229304 
C     0.5044865    3.8515447   -1.3503188 
C     1.7525753    3.3305352   -0.7432596 
C    -0.1660952    3.0403649   -2.2312512 
C    -2.0775061    2.8779430   -0.6299150 
C    -1.5547412    2.6763246   -1.9662781 
C    -2.1559719    1.4565559    1.4173195 
C    -2.5841196    1.6824947    0.0365544 
C    -1.9854375    0.1096060    1.9272031 
C     0.2808203    0.7272613    2.6734802 
C    -0.7285654   -0.3098699    2.5361436 
C     2.2435112    1.5533004    1.4609283 
C     1.6039341    0.4543773    2.1867415 
C     2.1863988    2.0162823   -1.0340151 
C     2.6735418    1.2332495    0.1003479 
C     0.4818672    1.8453790   -2.7962480 
C     1.6289083    1.2751670   -2.1769231 
C    -1.7818937    1.4738891   -2.6674681 
C    -0.5294178    0.9836633   -3.2558537 
C    -2.8977074    0.4941763   -0.7466524 
C    -2.4448618    0.3793792   -2.1104583 
C    -2.7790899   -0.8854465    1.3238998 
C    -3.0908001   -0.7305268   -0.0978164 
C    -2.5373029   -2.2300416    1.5915295 
C    -0.3252612   -1.6992667    2.5298607 
C    -1.3452906   -2.6748861    2.2197080 
C     1.9911934   -0.9086507    1.9200516 
C     1.0948775   -2.0248869    2.2534626 
C     3.0363190   -0.0732557   -0.1390612 
C     2.9712551   -1.0880517    0.8935906 
C     1.8004344   -0.1660113   -2.2818546 
C     2.7838893   -0.7347805   -1.4247580 
C    -0.4827063   -0.4174941   -3.1146513 
C    -1.7392254   -0.8376074   -2.5284680 
C     0.7194755   -1.0621689   -2.7134601 
C    -2.7959970   -2.0040779   -0.7260246 
C    -2.6731438   -2.9653953    0.3092568 
C    -1.8549036   -2.0439894   -1.8279836 
C    -0.9838968   -3.9096206    1.5431604 
C    -1.7256790   -3.9603333    0.2522661 
C     1.4024161   -3.3203266    1.6959980 
C     0.3238703   -4.1957748    1.2871067 
C     3.0876611   -2.3322706    0.2248290 
C     2.8464426   -2.1059305   -1.2233655 
C     2.3743664   -3.4285754    0.6373532 
C     0.6180223   -2.4415658   -2.2153908 
C    -0.7093014   -2.9755734   -1.8002429 
C    -0.7543213   -4.0286370   -0.8217728 
C     0.4654112   -4.4510101   -0.1821564 
C     1.8021658   -3.0020855   -1.6295193 
C     1.6873741   -3.9785765   -0.5708054 
