60 

C    -0.8450287    4.3201851    0.7090646 
C    -2.0757208    3.8765155    0.2411099 
C    -1.9043933    3.4174709   -1.1742637 
C     0.0687702    4.3478905   -0.4502629 
C    -0.5483379    3.5742234   -1.5279767 
C     1.3210650    4.0029940   -0.0081645 
C    -0.1667496    3.6053766    1.7750044 
C     1.2168081    3.5817405    1.4033063 
C    -0.7374890    2.3897218    2.3075983 
C    -2.7516029    2.8583748    0.9137737 
C    -2.1024229    2.0935838    1.9341743 
C    -2.5692957    2.1764038   -1.3214063 
C    -3.2580841    1.8980676   -0.0867093 
C    -1.9305208    1.0929137   -2.0068102 
C     0.1741241    2.4750285   -2.1474777 
C    -0.5650293    1.2622763   -2.4947467 
C     2.1301429    3.0581676   -0.7050502 
C     1.6118682    2.3536757   -1.8676244 
C     2.0261895    2.4563876    1.5528939 
C     2.8067027    2.2898406    0.3069903 
C     0.1337338    1.2328676    2.5657443 
C     1.5459692    1.2742708    2.2050087 
C    -0.4697252   -0.0879755    2.7287124 
C    -2.5239213    0.7212916    1.7371350 
C    -3.2220749    0.6229638    0.4541186 
C    -1.8050419   -0.3736671    2.2015586 
C    -2.4081827   -0.2376232   -1.6823048 
C    -2.9766485   -0.5052535   -0.3718943 
C    -1.8110696   -1.3444625   -2.3448267 
C     0.1842717    0.0449748   -2.8417266 
C    -0.4642250   -1.2223312   -2.8392354 
C     2.2949615    1.1457775   -2.2005877 
C     1.5854569    0.0003499   -2.7005342 
C     3.3785213    1.0758362   -0.0130079 
C     3.3312480    0.6343328   -1.3572432 
C     2.2927088    0.0307164    1.9540513 
C     3.2110757   -0.0752050    0.8660539 
C     0.3759001   -1.2113284    2.8901956 
C     1.7424359   -1.1832027    2.3967594 
C    -0.1322885   -2.5212931    2.7303577 
C    -2.1599843   -1.7021673    1.6537772 
C    -2.7310623   -1.7605336    0.3041535 
C    -1.3810172   -2.8020340    2.1050115 
C    -2.0091723   -2.6464361   -1.8598562 
C    -2.4526499   -2.8968469   -0.5322396 
C     0.2293347   -2.4779568   -2.5526624 
C    -0.7506724   -3.3895557   -2.0684069 
C     2.2361713   -1.2280003   -2.1918629 
C     3.2506339   -0.8026718   -1.3307842 
C     3.2074499   -1.2564745    0.0385471 
C     1.5102309   -2.4325546   -1.9321163 
C     1.9799346   -2.4385064    1.7245055 
C     0.9113800   -3.3198176    2.0786207 
C     2.4815173   -2.4342724    0.3785863 
C     1.7381101   -3.1631266   -0.6673249 
C    -1.1364295   -3.9446952    1.2331772 
C    -1.6485235   -3.9907522   -0.0337694 
C    -0.5052197   -4.2019655   -0.9804567 
C     0.3389057   -4.1556512    1.1451848 
C     0.7269616   -4.1078588   -0.2438420 
