60 

C     0.0857767    4.1972917   -0.0468673 
C     1.2294181    3.8043022    0.5905152 
C     0.8836848    3.2384910    1.9179631 
C    -1.0376642    3.9260099    0.9058850 
C    -0.5254513    3.1552565    2.0401979 
C    -2.0660860    3.4337605    0.1576494 
C    -0.2509339    3.6302383   -1.3443255 
C    -1.6303685    3.3034705   -1.2574713 
C     0.6455087    2.7088431   -1.9959555 
C     2.1848186    2.9418267   -0.0300776 
C     1.9683079    2.4812344   -1.3739094 
C     1.7101029    2.1384721    2.1311866 
C     2.6110485    2.0059218    0.9753000 
C     1.1859259    0.9729207    2.7642716 
C    -1.1304095    1.9047651    2.4173339 
C    -0.2574086    0.8220181    2.9014105 
C    -2.7567224    2.2394525    0.5304602 
C    -2.3740525    1.5264322    1.7289624 
C    -2.1622480    2.1067296   -1.7409134 
C    -2.9877547    1.5071849   -0.6800822 
C     0.0392962    1.6014198   -2.7559007 
C    -1.3686139    1.2650504   -2.5743537 
C     0.8934243    0.5310188   -3.2002038 
C     2.6947936    1.3083116   -1.7261720 
C     2.2211857    0.4711770   -2.7702608 
C     3.1409028    0.7317381    0.6311918 
C     3.2785392    0.4270005   -0.7448273 
C     2.0142199   -0.1888902    2.6400920 
C     2.9273725   -0.3369515    1.5487535 
C     1.4908019   -1.4810236    2.9164261 
C    -0.7904032   -0.5495342    3.0115188 
C     0.1204131   -1.6924822    3.0260440 
C    -2.8084682    0.1870134    1.7793622 
C    -2.0939281   -0.8248639    2.5427067 
C    -3.2547523    0.1204443   -0.6571766 
C    -3.3735662   -0.4744748    0.6315664 
C    -1.7917047   -0.1085011   -2.6537926 
C    -2.7390710   -0.6712225   -1.7377506 
C     0.4297900   -0.8654374   -3.3237487 
C    -0.8857403   -1.1677828   -3.0458272 
C     2.5756567   -0.9207482   -2.4891550 
C     3.1593793   -0.9690649   -1.2174878 
C     1.4832510   -1.7576257   -2.8452537 
C     2.8786861   -1.7453107    1.0918765 
C     2.0709183   -2.4514386    1.9927231 
C     2.8315828   -2.0394371   -0.3131534 
C    -0.1731290   -2.9491860    2.2895373 
C     1.0308803   -3.3214320    1.5567004 
C    -2.4195635   -2.1171479    1.9816356 
C    -3.1284253   -1.8795097    0.7820375 
C    -1.4167929   -3.1054275    1.7085766 
C    -2.4117473   -2.0849472   -1.5416481 
C    -1.2391517   -2.3819609   -2.3215164 
C    -2.5837733   -2.6807281   -0.2832253 
C    -1.5213923   -3.4927031    0.2912451 
C     1.1587506   -2.8375547   -2.0088490 
C     1.8677345   -3.0248230   -0.7526424 
C     0.9493503   -3.6431772    0.1893717 
C    -0.2269496   -3.1972719   -1.7951890 
C    -0.3552485   -3.7271371   -0.4447647 
