60 

C    -0.1923022    4.3079593    0.8331562 
C    -1.5115688    3.9861831    0.6632145 
C    -1.7421876    3.8284599   -0.8089895 
C     0.4616632    4.3300012   -0.4967613 
C    -0.4616121    3.7791895   -1.4633825 
C     1.7307551    3.8043526   -0.3156967 
C     0.6366046    3.5284359    1.7363681 
C     1.8976183    3.4205981    1.1057904 
C     0.0693521    2.3602012    2.4101990 
C    -2.1242803    2.8581436    1.3355228 
C    -1.3293165    1.9699947    2.1758895 
C    -2.6443785    2.8146745   -0.9677534 
C    -3.0097780    2.2935855    0.3736616 
C    -2.3661758    1.6843779   -1.7933722 
C    -0.0932398    2.6050554   -2.2153521 
C    -1.0970387    1.5334424   -2.4298343 
C     2.1906366    2.7270490   -1.1036755 
C     1.3136891    2.1774942   -2.1212006 
C     2.6506045    2.2285679    1.1299064 
C     2.9322087    1.8104129   -0.2328953 
C     0.9822482    1.3104827    2.6852947 
C     2.2913906    1.2397717    2.0421713 
C     0.5549134   -0.0401278    2.9187581 
C    -1.7082684    0.5594963    2.2394085 
C    -0.7786098   -0.4683776    2.7252772 
C    -3.1870386    0.9288767    0.2649977 
C    -2.9344959    0.5396800   -1.1308628 
C    -2.7318345    0.0744368    1.3210983 
C    -2.5836805   -0.7712300   -1.4277846 
C    -0.6962686    0.1590134   -2.7626680 
C    -1.4697719   -1.0284106   -2.3241474 
C     1.6578087    0.8945944   -2.5462095 
C     0.6715850   -0.0530067   -3.0624206 
C     3.1105928    0.4541961   -0.5561260 
C     2.6912534    0.1035440   -1.8804172 
C     2.5911330   -0.1304617    1.7692823 
C     1.6506030   -0.9142153    2.5395908 
C     3.0391600   -0.5832405    0.4904078 
C     1.4477012   -2.2333075    2.2675861 
C    -1.0069654   -1.9195599    2.5134751 
C     0.1313842   -2.8159346    2.4394193 
C    -2.8298898   -1.2821739    1.0162473 
C    -2.9222457   -1.7138349   -0.3960483 
C    -2.1576869   -2.3183310    1.7481531 
C    -2.4778600   -3.0178413   -0.4572173 
C    -2.1349007   -3.4731867    0.8953035 
C    -0.8668072   -2.3601942   -2.2602754 
C    -1.4124819   -3.3764142   -1.3664968 
C     1.2397292   -1.3411103   -2.9773639 
C     2.4573261   -1.2348136   -2.1917040 
C     0.5396728   -2.4705999   -2.5266243 
C     2.7560401   -1.9780834    0.1400503 
C     2.1191924   -2.8291061    1.1126844 
C     2.4893220   -2.3005854   -1.2414622 
C     1.4280383   -3.2119717   -1.6056826 
C     0.1224033   -3.9643860    1.5846947 
C    -0.9895001   -4.2531831    0.7694457 
C    -0.5526158   -4.2618524   -0.6512210 
C     1.2972086   -3.9078742    0.7199306 
C     0.8609610   -4.0588565   -0.6533400 
