60 

C     0.2107674    3.8216926    1.9759751 
C     1.1677673    3.8800746    0.8790200 
C     0.4659738    3.8635451   -0.3516339 
C    -1.0916247    3.7130148    1.4620294 
C    -0.9748238    3.8492721    0.0125605 
C    -1.6828742    2.5028635    1.9856529 
C     0.5159021    2.6652108    2.7619151 
C    -0.6589277    1.8447484    2.8050852 
C     2.1847099    2.9051715    1.1408362 
C     1.7220359    2.0867685    2.2748728 
C     2.7556232    2.2595047    0.0580089 
C     0.9382566    3.0605938   -1.4588613 
C     2.1925257    2.4031844   -1.2744960 
C    -0.0401559    2.4324600   -2.3608712 
C    -1.8548790    3.1651525   -0.7735029 
C    -1.4396316    2.5901646   -2.0578824 
C    -2.5581878    1.7235311    1.1865322 
C    -2.8157092    2.2213909   -0.1535263 
C    -2.6636767    0.3000737    1.4360575 
C    -0.5447545    0.4486262    2.8032526 
C    -1.7178300   -0.3146196    2.3724270 
C     1.8933036    0.6714637    2.2615825 
C     0.7909324   -0.1669786    2.6949734 
C     3.2668774    0.9192497    0.2027874 
C     2.8889123    0.1237653    1.3337429 
C     2.5341752    1.1937022   -1.9875665 
C     3.3131526    0.3288125   -1.1146473 
C     0.3164072    1.2145183   -3.0292055 
C     1.6114259    0.6116993   -2.8545119 
C    -0.6343867    0.1248422   -3.2168665 
C    -2.3576220    1.5680286   -2.3544935 
C    -3.1799200    1.3317361   -1.1616050 
C    -1.9644576    0.2961430   -2.8358089 
C    -3.2021441   -0.5708738    0.3949712 
C    -3.2829307   -0.0600241   -0.9390756 
C    -2.5777301   -0.7331635   -2.0118919 
C    -3.0036789   -1.9638217    0.4682077 
C    -1.6370548   -1.7133729    2.4597238 
C    -2.4781955   -2.5574090    1.6712436 
C     0.8824425   -1.6074412    2.5262298 
C    -0.3296643   -2.3883794    2.5839321 
C     2.9552473   -1.2887923    1.1758720 
C     1.9922212   -2.1626295    1.8277520 
C     3.2746960   -1.0579313   -1.2583248 
C     3.2952106   -1.8518726   -0.0889819 
C     1.4489287   -0.8409526   -2.8798232 
C     0.0304717   -1.1355901   -2.9879035 
C     2.2793951   -1.6676427   -2.1514135 
C    -1.9467669   -1.9914113   -1.7869270 
C    -2.4077374   -2.6890085   -0.6394235 
C    -0.5737617   -2.2136586   -2.2786174 
C    -1.7704893   -3.7528343    1.3619255 
C    -0.4426068   -3.6334207    1.9070764 
C    -1.6073882   -3.7435699   -0.0565416 
C     1.7652139   -3.2965326    0.9374884 
C     2.4287444   -2.9949402   -0.2846132 
C     1.7200690   -2.8492557   -1.5065644 
C     0.3060509   -3.1349950   -1.5434375 
C     0.5133001   -3.8892115    0.8554031 
C    -0.2211303   -3.8506715   -0.4181190 
