60 

C     4.4832811    0.9462009    0.0697677 
C     4.5548505   -0.3635972    0.4907503 
C     4.1927910   -1.2351107   -0.6634595 
C     4.0635308    0.9356922   -1.3648135 
C     3.7019029   -0.4056884   -1.7422679 
C     3.1809484    1.9762520   -1.5372449 
C     3.6635889    1.9231385    0.7648889 
C     2.9684819    2.6665077   -0.2433503 
C     2.9165205    1.4804735    1.8892778 
C     3.8067773   -0.8372614    1.6467710 
C     2.9823434    0.0890489    2.3243110 
C     3.4555921   -2.2882926   -0.1646025 
C     3.2366977   -2.1015937    1.2837233 
C     2.2245676   -2.6597968   -0.7745461 
C     2.3967025   -0.6670871   -2.3002338 
C     1.7329882   -1.9150753   -1.9031077 
C     1.9117774    1.7697610   -2.1577088 
C     1.5056198    0.4685318   -2.5983415 
C     1.6012607    2.9541034   -0.1543291 
C     0.9658631    2.5610276   -1.4182446 
C     1.5412918    1.9113438    2.0420475 
C     0.8587654    2.6606168    1.0407661 
C     1.6363472   -0.3059863    2.7151298 
C     0.7984470    0.8566450    2.6897699 
C     1.8899464   -2.4183663    1.5313067 
C     1.3060586   -2.9509711    0.2957076 
C     1.0520924   -1.5532516    2.3175708 
C    -0.0753907   -2.9738175    0.1073005 
C     0.3504418   -2.0603866   -2.1455644 
C    -0.5284554   -2.7536744   -1.2348540 
C     0.0708996    0.2907903   -2.7771760 
C    -0.4574024   -1.0290223   -2.7481836 
C    -0.4069246    2.3766959   -1.5048685 
C    -0.8818369    1.3353828   -2.4083358 
C    -0.5824506    2.5915905    0.9561829 
C    -1.2172904    2.7415375   -0.3494177 
C    -0.5977973    0.7786149    2.6283040 
C    -1.3209612    1.8627316    1.9676685 
C    -0.3882818   -1.6536509    2.1948373 
C    -0.9600500   -2.5435853    1.1769375 
C    -1.2123728   -0.5451758    2.6301204 
C    -2.3452177   -2.4790201    0.8749907 
C    -1.8901575   -2.4022871   -1.5256136 
C    -1.8530559   -1.3237824   -2.5017053 
C    -2.8378182   -2.3850300   -0.5164491 
C    -2.2798095    1.0531167   -2.4052119 
C    -2.7980681   -0.3189395   -2.4264711 
C    -2.6111049    2.5626209   -0.4639615 
C    -3.1424423    1.7831111   -1.5685343 
C    -2.7337857    1.7446032    1.8399979 
C    -3.3887272    2.2128518    0.6632841 
C    -2.6262478   -0.6256298    2.4629974 
C    -3.1962175   -1.6705818    1.6380192 
C    -3.4018887    0.5318772    2.2273831 
C    -3.9672142   -1.4542457   -0.5514613 
C    -3.9519814   -0.4121989   -1.5297240 
C    -4.2356928    0.9354037   -1.0982052 
C    -4.4400022    1.2418372    0.2630124 
C    -4.2711997   -1.1252051    0.8187795 
C    -4.4505301    0.2162030    1.2263839 
