60 

C    -0.0006675   -4.4039919    0.1741848 
C     0.2972874   -3.9426161    1.4371208 
C     1.6289564   -3.3044147    1.4120003 
C     1.1613716   -4.0515702   -0.6947170 
C     2.1087858   -3.2430348    0.0751190 
C     0.6385317   -3.5626713   -1.8655778 
C    -1.2215528   -3.9735856   -0.4875996 
C    -0.8408508   -3.5340284   -1.7952271 
C    -2.1198238   -3.1493188    0.2233663 
C    -0.5844852   -3.0661315    2.1738432 
C    -1.8138495   -2.7141226    1.6012270 
C     1.5793988   -2.1561754    2.2039905 
C     0.2148027   -1.9926554    2.7118807 
C     2.3498152   -1.0150503    1.8423397 
C     2.6085210   -1.9982318   -0.4384653 
C     2.8891726   -0.8993796    0.4947857 
C     1.1035508   -2.3303561   -2.4208593 
C     2.1981166   -1.6289325   -1.8027150 
C    -1.2420988   -2.2960418   -2.3210530 
C    -0.0586362   -1.5946975   -2.8265091 
C    -2.7180739   -2.0104677   -0.4286174 
C    -2.2464551   -1.5005245   -1.6846849 
C    -2.3528775   -1.3884641    1.8074530 
C    -3.0743084   -1.0604320    0.6068667 
C    -0.3127146   -0.6860246    2.9423167 
C    -1.6581927   -0.3448983    2.4907334 
C     1.9958960    0.1504270    2.5666800 
C     0.6528743    0.3394837    3.0566097 
C     2.4480564    1.4165623    2.1345865 
C     3.1628370    0.4535622   -0.0164550 
C     2.9789348    1.6060474    0.8463724 
C     2.3341823   -0.3015585   -2.2202068 
C     2.9869787    0.7059913   -1.4057923 
C    -0.0291496   -0.1881500   -2.9840198 
C     1.2806328    0.3665140   -2.9573785 
C    -2.2860013   -0.0553315   -1.9440834 
C    -1.1903157    0.6323927   -2.6243985 
C    -3.3466401    0.2345110    0.2966308 
C    -3.1130547    0.7224065   -1.0677308 
C    -1.9991763    1.0605192    2.2055280 
C    -3.0111301    1.2995908    1.2218009 
C     0.2977838    1.7520475    2.8901504 
C     1.4617955    2.4305298    2.4473578 
C    -0.9959450    2.1232102    2.4127640 
C     2.4181697    2.8843106    0.3658492 
C     1.4327763    3.3440747    1.3649290 
C     2.5453969    1.9864170   -1.8667350 
C     1.4498835    1.7574757   -2.7539592 
C     2.1509722    3.0412907   -0.9862959 
C    -0.9914306    2.0765413   -2.4293510 
C     0.3558714    2.6084724   -2.4416082 
C     0.8290957    3.5280248   -1.4156449 
C    -2.9812121    2.1064992   -0.9690069 
C    -3.0226294    2.4968068    0.4484029 
C    -1.9225031    2.8181301   -1.6232140 
C    -1.0251710    3.3218370    1.5813970 
C     0.1970950    3.8393886    0.9657369 
C    -0.0786771    4.0171188   -0.4694868 
C    -2.0645101    3.4808389    0.6218677 
C    -1.4554103    3.7918351   -0.6824986 
