60 

C     0.7500891   -4.0917228    0.3665738 
C    -0.3093737   -4.1103434   -0.5379380 
C    -1.5305047   -3.7499953    0.1645231 
C     0.2159717   -3.5577305    1.6387829 
C    -1.1803086   -3.3032554    1.4952309 
C     1.0830682   -2.5682737    2.1097949 
C     1.9630087   -3.4114231    0.0705852 
C     2.2747596   -2.5808486    1.2341292 
C     2.1418171   -2.8433604   -1.2106782 
C    -0.2421716   -3.3209386   -1.7529019 
C     0.9804611   -2.7314125   -2.0932795 
C    -2.2649425   -2.8862015   -0.6757592 
C    -1.4508257   -2.5323316   -1.8595793 
C    -3.0615621   -1.9298985   -0.0736896 
C    -1.7300598   -2.0906274    2.0191480 
C    -2.8897490   -1.6128918    1.3226616 
C     0.5853423   -1.3236720    2.6463329 
C    -0.8520650   -1.0841344    2.6327992 
C     1.5198951   -0.2006750    2.6737249 
C     3.0217646   -1.4403072    1.0887071 
C     2.7346448   -0.2709992    1.9003366 
C     2.9014770   -1.6261722   -1.3526245 
C     3.4483960   -0.9892261   -0.2314982 
C     0.9915105   -1.4197318   -2.6984345 
C     2.2579118   -0.7963609   -2.3602730 
C    -1.4574381   -1.2069934   -2.3605176 
C    -0.1878303   -0.6368629   -2.8417396 
C    -3.3707240   -0.6919133   -0.7889631 
C    -2.5319462   -0.2957049   -1.9090167 
C    -3.3494066   -0.2758520    1.4698535 
C    -3.7816577    0.2488446    0.1685726 
C    -1.3273263    0.3150957    2.7049091 
C    -2.5858207    0.6987355    2.0965260 
C     1.0125079    1.1071678    2.9217332 
C    -0.4028349    1.3588945    2.8622704 
C     1.6642518    2.2597504    2.3981942 
C     3.2130634    0.8705977    1.1767735 
C     3.5471937    0.4493214   -0.1742963 
C     2.6507786    2.1482776    1.3984278 
C     2.3760594    0.5819650   -2.3209287 
C     3.0978101    1.2349879   -1.2438450 
C    -0.0308205    0.8180043   -2.9402730 
C     1.2547130    1.4117180   -2.6994981 
C    -2.3947417    1.0923125   -2.1140593 
C    -1.1670780    1.6503438   -2.6944216 
C    -3.4122639    1.6078702    0.0829011 
C    -2.7122571    1.9554203    1.2998391 
C    -2.9102208    2.0705059   -1.1520822 
C    -0.6048839    2.6892597    2.2252438 
C     0.6600689    3.2121207    1.9588606 
C    -1.6818051    2.9148598    1.2979625 
C     2.2844185    3.0145359    0.2775785 
C     2.4599231    2.5206560   -1.0202670 
C     1.3915039    2.6688457   -1.9975216 
C     1.0316452    3.6849438    0.6384307 
C    -0.9964007    2.9514480   -2.1682815 
C    -2.0099941    3.1565135   -1.1346682 
C    -1.3674027    3.5961462    0.0468324 
C     0.2484015    3.4102103   -1.6765327 
C     0.0319595    3.8805074   -0.3046712 
