60 

C     0.4398291   -4.3353166    0.4298659 
C    -0.4309590   -4.1624989   -0.6235572 
C    -1.7113336   -3.6401050   -0.1109764 
C    -0.2783257   -3.8647635    1.6571267 
C    -1.5575305   -3.3165121    1.2775135 
C     0.6134020   -3.0860205    2.3554496 
C     1.7557244   -3.7268506    0.4029824 
C     1.9132493   -3.0410270    1.6449047 
C     2.1514880   -3.0187355   -0.7629134 
C    -0.0797289   -3.3727999   -1.7903174 
C     1.2200070   -2.8505705   -1.8777536 
C    -2.1840855   -2.6883051   -1.0164820 
C    -1.1779441   -2.4957728   -2.0685776 
C    -2.9642383   -1.5981223   -0.5477676 
C    -1.9537710   -2.0089032    1.7202852 
C    -2.8887438   -1.2736833    0.8785511 
C     0.2854854   -1.7569719    2.7697494 
C    -1.0080802   -1.2202587    2.5231570 
C     2.4050666   -1.7296060    1.7347007 
C     1.4511396   -0.9414355    2.5163483 
C     2.8991429   -1.7875141   -0.6350599 
C     3.0241755   -1.0904097    0.6108448 
C     1.4259811   -1.5259418   -2.4343622 
C     2.6132275   -0.9915221   -1.8029500 
C    -0.9844228   -1.1781341   -2.5971441 
C     0.3635857   -0.6491563   -2.7780721 
C    -3.1262153   -0.5389692   -1.4893788 
C    -2.0403247   -0.2675180   -2.4079856 
C    -3.6355534    0.7119392   -1.0718780 
C    -3.1969224    0.0656045    1.2549956 
C    -3.7226229    0.9911994    0.2885646 
C    -1.1089934    0.2322198    2.5857066 
C    -2.3104972    0.8148480    2.1142097 
C     1.3986757    0.4568836    2.4261759 
C     0.0961648    1.0653270    2.6661712 
C     3.1516678    0.3581468    0.6323566 
C     2.4619871    1.1424813    1.6742840 
C     2.8608116    0.3477746   -1.8099107 
C     3.3823831    1.0077129   -0.6225087 
C     0.5918823    0.8135182   -2.7345493 
C     1.9177018    1.2604084   -2.4505706 
C    -1.8202914    1.1871462   -2.4205056 
C    -2.8512460    1.7916713   -1.6885795 
C    -0.4934914    1.7378862   -2.4444399 
C    -3.1375612    2.3107262    0.5220681 
C    -2.3430548    2.2177099    1.6835800 
C    -2.5431142    2.7809587   -0.6972755 
C    -0.0069138    2.4670251    2.4074584 
C    -1.2063284    3.0036561    1.7677938 
C     2.3273839    2.5510192    1.5080602 
C     1.1067798    3.1771081    1.9256993 
C     3.1031847    2.3856102   -0.7893318 
C     2.1423122    2.5382896   -1.9100688 
C     2.6951009    3.1867517    0.2572845 
C    -0.2600855    2.9963730   -1.6989116 
C    -1.2580596    3.4046370   -0.6861442 
C    -0.7673389    3.7719827    0.6211710 
C     0.6229806    4.0223286    0.8236569 
C     1.1002813    3.4036140   -1.4984928 
C     1.5269758    3.9548672   -0.2142507 
