60 

C     2.2736016    3.9228149    0.0000000 
C     1.4078929    3.9455737    1.1704361 
C     0.1044305    4.2420241    0.7430725 
C     1.4078929    3.9455737   -1.1704361 
C     0.1044305    4.2420241   -0.7430725 
C     1.5816800    2.7136721   -1.9348049 
C     2.8516695    2.6410295    0.0000000 
C     2.5640899    1.9274480   -1.2261855 
C     1.5816800    2.7136721    1.9348049 
C     2.5640899    1.9274480    1.2261855 
C     0.4828534    2.0403785    2.5508165 
C    -1.0082870    3.4879791    1.1790525 
C    -0.8737118    2.5139072    2.2222616 
C    -1.0082870    3.4879791   -1.1790525 
C    -1.7825429    3.1237290    0.0000000 
C     0.4828534    2.0403785   -2.5508165 
C    -0.8737118    2.5139072   -2.2222616 
C     0.6931860    0.6378397   -2.8984891 
C     2.5631837    0.5257449   -1.2422383 
C     1.7970885   -0.1100681   -2.2957012 
C     2.5631837    0.5257449    1.2422383 
C     2.7964671   -0.2056743    0.0000000 
C     0.6931860    0.6378397    2.8984891 
C     1.7970885   -0.1100681    2.2957012 
C    -0.4479253   -0.1354851    3.2997944 
C    -1.9360938    1.5717910    2.3285037 
C    -1.7312050    0.3644525    3.0162246 
C    -2.6386509    1.9776375    0.0000000 
C    -2.7950386    1.2542737    1.2067210 
C    -1.9360938    1.5717910   -2.3285037 
C    -2.7950386    1.2542737   -1.2067210 
C    -0.4479253   -0.1354851   -3.2997944 
C    -1.7312050    0.3644525   -3.0162246 
C    -0.5139348   -1.5769594   -3.1193716 
C     1.7828098   -1.5236243   -2.3066113 
C     0.6216841   -2.2795485   -2.8031242 
C     2.6948308   -1.6347034    0.0000000 
C     2.3441084   -2.2939009   -1.2366729 
C     1.7828098   -1.5236243    2.3066113 
C     2.3441084   -2.2939009    1.2366729 
C    -0.5139348   -1.5769594    3.1193716 
C     0.6216841   -2.2795485    2.8031242 
C    -2.5028272   -0.7104095    2.3811279 
C    -3.0659774   -0.1927865    1.2047308 
C    -1.7618217   -1.8962763    2.3967769 
C    -3.0659774   -0.1927865   -1.2047308 
C    -2.5028272   -0.7104095   -2.3811279 
C    -1.7618217   -1.8962763   -2.3967769 
C    -3.0086427   -0.9618141    0.0000000 
C    -1.7518383   -2.7791595    1.2589719 
C    -1.7518383   -2.7791595   -1.2589719 
C    -2.3271241   -2.2841272    0.0000000 
C     0.5059809   -3.4881356   -2.0709026 
C     1.6449967   -3.5749327   -1.2090860 
C    -0.6662900   -3.7280600   -1.2318116 
C     1.6449967   -3.5749327    1.2090860 
C     0.5059809   -3.4881356    2.0709026 
C    -0.6662900   -3.7280600    1.2318116 
C     1.2643666   -4.1819889    0.0000000 
C    -0.2020424   -4.2683795    0.0000000 
