60 

C     4.6447094    0.3123055   -0.9285062 
C     4.2984248    1.5066998   -0.2135532 
C     4.0690154    1.1799608    1.1595484 
C     4.4645944   -0.7989499   -0.0083300 
C     4.1174165   -0.2789111    1.2661996 
C     3.5370676   -1.7306442   -0.5724556 
C     3.6215981    0.1467874   -1.9138337 
C     3.0091930   -1.1343520   -1.8016298 
C     3.2255806    2.1857979   -0.9256916 
C     2.7354886    1.2914189   -1.9721530 
C     2.2797500    2.8823896   -0.1912091 
C     2.8960159    1.6229736    1.8304367 
C     2.1218098    2.6368490    1.2539982 
C     2.9330878   -0.7062774    1.9556409 
C     2.1714097    0.4652195    2.3540221 
C     2.6186703   -2.4237789    0.2485921 
C     2.2256599   -1.8615148    1.5475802 
C     1.6216464   -3.1036670   -0.4915527 
C     1.6446532   -1.3200128   -2.1858367 
C     1.0861616   -2.5245487   -1.7259983 
C     1.3359294    1.1462211   -2.2398427 
C     0.7572854   -0.1889406   -2.4480332 
C     0.9709431    3.0503294   -0.7344998 
C     0.4528063    2.1981073   -1.7634090 
C     0.7348353    2.7187260    1.5492495 
C     0.1084827    3.3100973    0.3853930 
C     0.7493384    0.4391987    2.4727385 
C     0.0002329    1.6675992    2.1949191 
C     0.8454752   -2.0159660    1.9847460 
C     0.0650555   -0.8452250    2.4076717 
C     0.5681478   -3.7047993    0.1824884 
C     0.1541489   -3.1577385    1.4620569 
C    -0.3182803   -2.7869969   -1.7666791 
C    -0.6001677   -3.7241853   -0.6959783 
C    -0.6783794   -0.3945159   -2.3902374 
C    -1.2241076   -1.7281484   -2.0632816 
C    -0.9845152    2.0608036   -1.8867209 
C    -1.5688654    0.7787947   -2.2937217 
C    -1.2272830    3.2796913    0.2260122 
C    -1.7941130    2.9281678   -1.0691331 
C    -1.4534917    1.6518010    2.0527016 
C    -2.0662915    2.6969328    1.2583643 
C    -1.3985264   -0.8531940    2.3189291 
C    -2.1774619    0.3914476    2.1796988 
C    -1.2533652   -3.1734711    1.4586750 
C    -1.7215363   -3.5508987    0.0928054 
C    -2.0186150   -2.0691735    1.8671855 
C    -2.5602000   -1.8238692   -1.4624905 
C    -2.7378264   -2.6697079   -0.2866892 
C    -3.1533313   -1.9891857    0.9475775 
C    -2.9672394    0.5742958   -2.0662171 
C    -3.4199247   -0.7184567   -1.5383902 
C    -3.1491934    2.6662429   -0.8274865 
C    -3.3350369    2.5512651    0.6668724 
C    -3.7916882    1.5858324   -1.4313834 
C    -3.5249080    0.3215949    1.6327301 
C    -3.9108390   -0.8725116    0.8764330 
C    -4.3420777   -0.4454672   -0.4526588 
C    -4.1096181    1.4209284    0.9106893 
C    -4.5777511    0.9266292   -0.3963528 
