60 

C    -0.6639747   -3.8703158    1.4671092 
C     0.6931459   -3.6575645    1.6114098 
C     1.3517725   -3.8631932    0.3046598 
C    -0.8931264   -4.1575137    0.0211813 
C     0.3355267   -3.9376270   -0.6962069 
C    -2.0269647   -3.4813462   -0.3472569 
C    -1.5947739   -2.8652168    1.8784419 
C    -2.5815800   -2.7774816    0.8232995 
C    -1.1290809   -1.6378993    2.4356508 
C     1.2124630   -2.4522368    2.1687631 
C     0.3256253   -1.4350560    2.6089028 
C     2.4158476   -2.9650096    0.2093178 
C     2.4004112   -2.0843798    1.3768197 
C     2.6701005   -2.3968268   -1.0638662 
C     0.3602474   -2.9667241   -1.7975776 
C     1.5835110   -2.3116288   -2.0312225 
C    -2.0591594   -2.5610961   -1.4613824 
C    -0.8716432   -2.2284626   -2.1663111 
C    -3.1347473   -1.5754310    0.4029921 
C    -2.9868890   -1.5200652   -1.0593389 
C    -1.9707953   -0.4516735    2.2425423 
C    -2.9535358   -0.3758459    1.1660292 
C    -1.4658578    0.7653651    2.7470661 
C     0.8745967   -0.0762338    2.7052083 
C    -0.0315608    0.9574367    2.9905525 
C     2.8584092   -0.7610337    1.2909363 
C     2.1704053    0.2671460    2.0800221 
C     3.3765228   -1.1912900   -1.0960333 
C     3.5110921   -0.3760977    0.0480390 
C     1.6658185   -0.9634352   -2.6368538 
C     2.8392875   -0.3444375   -2.1714670 
C    -0.7803369   -0.8592275   -2.7376963 
C     0.5042468   -0.1747168   -2.8865679 
C    -2.9817409   -0.3188235   -1.6915547 
C    -1.9319576   -0.0351794   -2.6500592 
C    -3.2114546    0.8949307    0.4948515 
C    -3.2902321    0.9037981   -0.9480004 
C    -1.9806342    2.0020661    2.2982290 
C    -2.7291819    2.0979230    1.1004627 
C     0.2749795    2.3504224    2.7174323 
C    -0.9160298    2.9985469    2.2962383 
C     2.4351692    1.6247641    1.7757570 
C     1.4939259    2.6734528    2.0815168 
C     3.4221437    0.9978053   -0.4052508 
C     2.8740854    1.0020239   -1.7621808 
C     3.0456430    1.9813754    0.4785124 
C     0.6240677    1.2882955   -2.7347386 
C     1.8034305    1.8808711   -2.1088824 
C    -1.8137839    1.3805208   -2.6679484 
C    -2.7156717    1.9619533   -1.6732674 
C    -0.5866842    2.0547941   -2.6492952 
C    -2.1280658    3.1929504    0.3225595 
C    -0.9784511    3.7126683    1.0685289 
C    -2.0419957    3.0554329   -1.0609851 
C    -0.7326954    3.1915777   -1.7345132 
C     1.4537607    3.5990619    0.9834451 
C     2.3648609    3.1220247   -0.0373543 
C     1.6588332    3.0453917   -1.2680731 
C     0.2283781    4.0017598    0.3857836 
C     0.3542974    3.6687107   -1.0383765 
