60 

C    -0.3603691    3.7403133    0.5479665 
C    -0.5188362    3.4655407   -0.8297385 
C     0.8158279    3.2712363   -1.3855068 
C     1.0228659    3.4568233    0.9064766 
C     1.7370001    3.0897676   -0.2668242 
C     1.0725486    2.7329605    2.1123480 
C    -1.1839301    3.1742020    1.5488302 
C    -0.3079633    2.6607320    2.6088805 
C    -2.2699979    2.3952933    1.1348214 
C    -1.6099171    2.6444421   -1.2889842 
C    -2.4945370    2.1606161   -0.2716250 
C    -1.4301224    1.8302015   -2.5084453 
C     0.9756873    2.5197693   -2.5349218 
C    -0.1560305    1.8173121   -3.1489794 
C     2.1241013    1.6815784   -2.6271608 
C     2.6291288    1.9723292   -0.2202296 
C     2.8665509    1.3148585   -1.4744478 
C     1.9620302    1.6032931    2.2306266 
C     2.7243954    1.1980488    1.0373424 
C     1.5870027    0.6075617    3.1875661 
C    -0.7097420    1.5816041    3.3740609 
C     0.2827685    0.6562214    3.8017705 
C    -2.6114482    1.1685922    1.8603960 
C    -1.8923847    0.7917384    2.9848653 
C    -3.1008212    0.8444118   -0.3845591 
C    -3.0559763    0.1789134    0.9146814 
C    -2.2426710    0.6490296   -2.6706531 
C    -3.0258937    0.1286557   -1.5506945 
C    -1.7467142   -0.4859312   -3.3514579 
C     0.3775746    0.5890362   -3.7364048 
C     1.7467142    0.4859312   -3.3514579 
C    -0.3775746   -0.5890362   -3.7364048 
C     3.0258937   -0.1286557   -1.5506945 
C     2.2426710   -0.6490296   -2.6706531 
C     3.0559763   -0.1789134    0.9146814 
C     3.1008212   -0.8444118   -0.3845591 
C     1.8923847   -0.7917384    2.9848653 
C     2.6114482   -1.1685922    1.8603960 
C    -0.2827685   -0.6562214    3.8017705 
C    -1.5870027   -0.6075617    3.1875661 
C     0.7097420   -1.5816041    3.3740609 
C    -2.7243954   -1.1980488    1.0373424 
C    -1.9620302   -1.6032931    2.2306266 
C    -2.8665509   -1.3148585   -1.4744478 
C    -2.1241013   -1.6815784   -2.6271608 
C    -2.6291288   -1.9723292   -0.2202296 
C     0.1560305   -1.8173121   -3.1489794 
C     1.4301224   -1.8302015   -2.5084453 
C    -0.9756873   -2.5197693   -2.5349218 
C     2.4945370   -2.1606161   -0.2716250 
C     2.2699979   -2.3952933    1.1348214 
C     1.6099171   -2.6444421   -1.2889842 
C     0.3079633   -2.6607320    2.6088805 
C    -1.0725486   -2.7329605    2.1123480 
C     1.1839301   -3.1742020    1.5488302 
C    -1.7370001   -3.0897676   -0.2668242 
C    -0.8158279   -3.2712363   -1.3855068 
C     0.5188362   -3.4655407   -0.8297385 
C    -1.0228659   -3.4568233    0.9064766 
C     0.3603691   -3.7403133    0.5479665 
