60 

C     0.8317531   -4.0900376    0.1008259 
C     0.4492988   -3.7688678    1.3811464 
C     1.4905394   -2.9488533    2.0094725 
C     2.1881823   -3.5119062   -0.1096727 
C     2.4884619   -2.6483176    1.0071344 
C     2.2143207   -3.0096064   -1.3893360 
C    -0.0081475   -3.7472744   -1.0300519 
C     0.8699216   -3.1925141   -1.9975222 
C    -1.2897265   -3.1298405   -0.8317825 
C    -0.8360319   -3.1717530    1.6319786 
C    -1.7610101   -2.9753001    0.5588483 
C     0.8316547   -1.9287454    2.6934815 
C    -0.6164157   -2.1189899    2.5880730 
C     1.3881081   -0.6026109    2.7132028 
C     2.8908530   -1.2933997    0.7845741 
C     2.4939862   -0.2984018    1.7960189 
C     2.6582630   -1.6903691   -1.6666536 
C     3.0623781   -0.8211139   -0.5973815 
C     0.5686966   -2.0382943   -2.7337495 
C     1.7490849   -1.1696878   -2.6730751 
C    -1.7244570   -2.1287783   -1.8223780 
C    -0.7430310   -1.4792373   -2.6893332 
C    -2.9250298   -1.3893033   -1.5428748 
C    -2.7828017   -2.0077615    0.8154034 
C    -3.4912300   -1.4225954   -0.2409491 
C    -1.4782374   -0.9956937    2.6672577 
C    -2.6350092   -0.9902185    1.8590891 
C     0.5128276    0.4389864    3.1096633 
C    -0.9173165    0.2692333    3.0148291 
C     0.8154527    1.8258445    2.8507034 
C     2.7611439    1.0664407    1.5532776 
C     2.0039135    2.1364896    2.1919436 
C     3.0352104    0.6135142   -0.8759493 
C     3.1119543    1.5403570    0.2247418 
C     1.6079598    0.1814120   -2.8386099 
C     2.3787708    1.0934804   -2.0423864 
C    -0.8614376   -0.0369752   -2.9909229 
C     0.3028877    0.7577116   -3.0640272 
C    -3.1133692   -0.0454338   -2.0415052 
C    -2.0587826    0.6586321   -2.6072608 
C    -3.8288894   -0.0361774    0.1438720 
C    -3.2149935    0.2558438    1.3896117 
C    -3.6542106    0.7932696   -0.9568171 
C    -1.4769239    1.5127254    2.5348714 
C    -0.4279269    2.5045511    2.5097683 
C    -2.5404559    1.5095122    1.5799345 
C    -0.4274144    3.4974323    1.5191246 
C     2.0167774    3.2764859    1.3109715 
C     2.7026177    2.8935508    0.0816149 
C     0.8344896    3.9459192    0.9907876 
C     1.6591316    2.3645575   -2.0426298 
C     0.3534501    2.1318127   -2.5791072 
C     1.8711776    3.3048028   -1.0129398 
C     0.7287248    3.9920297   -0.4679749 
C    -1.9914705    1.9970837   -1.9820588 
C    -2.9041381    1.9908924   -0.8567753 
C    -2.4317730    2.4455696    0.4315630 
C    -1.3536035    3.3636217    0.4114244 
C    -0.7983944    2.7284373   -1.9542391 
C    -0.5797643    3.5978583   -0.8172453 
