60 

C     0.2170945    4.4266925   -0.7357059 
C     0.9750541    4.3552053    0.4347414 
C     0.1069949    3.8551124    1.5426850 
C    -1.1824070    4.1638668   -0.3433512 
C    -1.1946697    3.6675088    1.0329924 
C    -1.7862419    3.4291552   -1.3414764 
C     0.5161460    3.5408857   -1.8395410 
C    -0.7492169    3.0247095   -2.2965424 
C     1.6241005    2.6263409   -1.7717060 
C     2.1677780    3.6339729    0.4578232 
C     2.5203204    2.7893108   -0.6425065 
C     0.8087399    2.8033464    2.2035924 
C     2.1280425    2.7613314    1.6472222 
C     0.1482539    1.5693684    2.5257320 
C    -1.9172644    2.4717655    1.3582104 
C    -1.2910043    1.5114641    2.2830079 
C    -2.5897002    2.2945454   -1.0301084 
C    -2.8109159    1.9179300    0.3364184 
C    -0.9741399    1.6690997   -2.5877950 
C    -2.2229740    1.2526341   -1.9490352 
C     1.4331683    1.2518240   -2.3100416 
C     0.1058109    0.7359242   -2.6732742 
C     2.3698285    0.2621868   -1.9449551 
C     3.1118636    1.6068552   -0.0492307 
C     2.7360343    1.5424979    1.3657577 
C     3.1779639    0.4425336   -0.7529216 
C     0.9210635    0.3268914    2.5350798 
C     2.2280432    0.3148966    1.8983042 
C     0.2229618   -0.9574833    2.6860999 
C    -1.9309838    0.2598133    2.4781680 
C    -1.1932867   -0.9703065    2.7043641 
C    -3.3147114    0.6045925    0.5089731 
C    -3.0717789   -0.0962695    1.7216057 
C    -2.4883730   -0.1021101   -1.6928691 
C    -3.2726009   -0.3883908   -0.5400837 
C    -0.2060280   -0.6879469   -2.6265639 
C    -1.5521616   -1.1091088   -2.2034408 
C     2.1393456   -1.1500749   -2.0833450 
C     0.8782010   -1.6541236   -2.5021621 
C     3.2141488   -0.8194395   -0.0654241 
C     2.7216238   -0.9046299    1.2812731 
C     2.8754164   -1.8376518   -1.0257476 
C     0.8581111   -2.1876234    2.3400745 
C     2.1567903   -2.1617653    1.6606746 
C     0.1236495   -3.3374177    1.8618929 
C    -1.9431227   -2.0942761    2.1337189 
C    -3.0721027   -1.5226155    1.4922795 
C    -3.2135220   -1.7076855    0.0856462 
C    -1.2780026   -3.2235901    1.5645835 
C    -1.7766867   -2.4499060   -1.7784323 
C    -2.5212215   -2.7255676   -0.5396071 
C    -1.7181924   -3.6570632    0.2398179 
C     0.5942373   -3.0346042   -2.1634503 
C    -0.7584276   -3.4189159   -1.8613775 
C    -0.7799112   -4.2466852   -0.6671080 
C     2.4858185   -3.1020677   -0.5782278 
C     2.2496082   -3.2885706    0.8288853 
C     1.0001061   -4.0470028    0.9661050 
C     1.4326618   -3.7683685   -1.2811962 
C     0.5606671   -4.4610004   -0.2985025 
