60 

C    -1.7906995   -4.2916470   -0.9515315 
C    -0.5823550   -4.7012493   -0.2744882 
C    -0.6799299   -4.3298756    1.0892143 
C    -2.5826919   -3.5350569   -0.0076416 
C    -1.9345875   -3.5742818    1.2488493 
C    -2.8287472   -2.2189393   -0.5466230 
C    -1.3602339   -3.3375294   -1.9220843 
C    -2.0606315   -2.0910842   -1.7755204 
C     0.5743127   -4.2092113   -1.0115490 
C     0.0772439   -3.2926307   -2.0360834 
C     1.7211139   -3.8451170   -0.2961382 
C     0.3617315   -3.5857434    1.7318042 
C     1.6163041   -3.4968118    1.1239497 
C    -1.6366178   -2.3766181    1.9628871 
C    -0.2310730   -2.3632535    2.3123779 
C    -2.8521096   -1.0896265    0.2864632 
C    -2.2236267   -1.1379798    1.5940120 
C    -2.8338239    0.1735890   -0.3912274 
C    -1.4553607   -0.8548325   -2.1283982 
C    -2.1013466    0.3348823   -1.6260089 
C     0.7334489   -2.0494868   -2.3207899 
C    -0.0397917   -0.8049157   -2.4564063 
C     2.5650185   -2.8582874   -0.8774997 
C     2.0834188   -1.9390846   -1.8576158 
C     2.4202866   -2.3021595    1.3441397 
C     3.1750492   -2.0643455    0.1630592 
C     0.4967939   -1.1506110    2.4744891 
C     1.9022794   -1.1637255    2.0768381 
C    -1.6303826    0.0780981    2.1132874 
C    -0.2385321    0.1175498    2.5183948 
C    -2.9734119    1.2863216    0.4545958 
C    -2.2449238    1.2795019    1.7180939 
C    -2.8613448    2.5635496   -0.0817199 
C    -1.5940163    1.6356111   -1.9698791 
C    -2.2115204    2.7785203   -1.3288138 
C     0.6076618    0.4944349   -2.3783212 
C    -0.1905713    1.7178064   -2.3510224 
C     2.6526045   -0.6372389   -1.5754680 
C     3.3726238   -0.7449523   -0.3134934 
C     1.9939873    0.5599407   -1.8976803 
C     2.4920243    0.0914075    1.8148624 
C     3.2674613    0.2981492    0.5925870 
C     0.4482332    1.4065304    2.4426767 
C     1.8275004    1.3343584    2.0913447 
C    -1.6750230    2.5937376    1.9128112 
C    -2.2685582    3.4637372    0.9261728 
C    -0.2670095    2.6847800    2.1814972 
C    -1.5156424    4.0280723   -1.1892855 
C    -1.5555743    4.4460763    0.2642743 
C     0.4875671    2.9752049   -2.1159809 
C    -0.2168869    4.1726958   -1.6411337 
C     2.4295272    1.7576120   -1.1894821 
C     2.9962522    1.6028683    0.1140036 
C     2.3746176    2.3450864    1.2048943 
C     1.7383405    2.9648063   -1.4331479 
C     0.4357979    3.8013453    1.5695290 
C    -0.2210344    4.7076492    0.6434704 
C     0.5778109    4.8129938   -0.5833250 
C     1.7282439    3.5255411    0.9691886 
C     1.7008031    4.0138376   -0.4114088 
