34
0 1
C       -2.831516    0.009698    1.211208 
C       -3.203053    0.318580   -0.091013 
C       -2.844120   -0.829197   -0.957622 
C       -2.146542   -1.329160    1.234736 
C       -2.163295   -1.841077   -0.073846 
C       -0.888441   -1.164131    1.935735 
C       -1.832090    0.997259    1.702005 
C       -0.738240    0.301972    2.258401 
C       -2.353704    1.478123   -0.538242 
C       -1.613993    1.970363    0.624773 
C       -1.887742   -0.395372   -1.883941 
C       -1.625259    1.063428   -1.685659 
C       -0.900909   -2.196883   -0.702967 
C       -0.730424   -1.319203   -1.882517 
C        0.217659   -1.877233    1.488094 
C        0.213367   -2.437198    0.114163 
C        1.576017   -1.353713    1.721637 
C        0.556389    0.904395    2.185724 
C        1.746399    0.057727    2.039578 
C       -0.310673    2.453350    0.437246 
C        0.732163    2.042646    1.364785 
C       -0.300184    1.533769   -1.867088 
C        0.273821    2.377319   -0.887658 
C        0.532189   -0.854525   -2.223766 
C        0.759664    0.600916   -2.307455 
C        1.545479   -2.222703   -0.440620 
C        2.415967   -1.670272    0.636177 
C        1.696630   -1.414929   -1.568355 
C        2.648601    0.638527    1.086203 
C        2.031762    1.861052    0.594770 
C        1.748086    2.023054   -0.749146 
C        2.002164    0.941664   -1.691859 
C        3.027356   -0.405432    0.124294 
C        2.646473   -0.262810   -1.207777 
