48
0 1
C       -4.274562   -0.498289    0.254447 
C       -3.718467   -1.740916    0.120879 
C       -2.936278   -1.777665   -1.163108 
C       -3.924969    0.324344   -0.962799 
C       -2.972729   -0.424680   -1.757641 
C       -3.571561    1.593883   -0.477936 
C       -3.640543    0.198285    1.434719 
C       -3.319806    1.478527    1.036878 
C       -2.711100   -1.948553    1.214348 
C       -2.583447   -0.673352    1.963768 
C       -1.701728   -2.318884   -0.870162 
C       -1.572719   -2.460741    0.622289 
C       -0.515435   -1.905578   -1.567866 
C       -1.728839    0.164494   -2.180153 
C       -0.480517   -0.632341   -2.214871 
C       -2.458329    2.233325   -1.024718 
C       -1.560334    1.555710   -1.908973 
C       -2.003520    2.027485    1.295794 
C       -1.612110    2.741540    0.112747 
C       -1.296534   -0.170062    2.212295 
C       -0.997209    1.254759    1.960197 
C       -0.281909   -2.229210    1.205122 
C       -0.148767   -1.097703    2.099271 
C        0.674060   -2.481634   -1.048106 
C        0.813267   -2.634479    0.438324 
C        1.903386   -2.063820   -1.541921 
C        0.835401   -0.007911   -2.355913 
C        2.008010   -0.790000   -2.200841 
C       -0.210101    2.069886   -1.618940 
C       -0.284761    2.744532   -0.307846 
C        0.952898    1.410661   -1.970827 
C        0.369810    1.661769    1.778476 
C        0.734090    2.465798    0.643871 
C        1.151242   -0.646330    2.324499 
C        1.436682    0.811962    2.285649 
C        2.165089   -2.286539    0.794273 
C        2.927838   -2.126638   -0.440291 
C        2.338330   -1.324433    1.811344 
C        3.286326   -0.216598   -1.745026 
C        3.830963   -1.097254   -0.619574 
C        2.143372    1.865672   -1.281360 
C        2.030210    2.370244    0.053953 
C        3.387848    1.102126   -1.352385 
C        2.771000    1.003098    1.960120 
C        3.399612   -0.340529    1.665268 
C        4.155885   -0.230269    0.488800 
C        3.154413    1.866737    0.843075 
C        4.036543    1.179570   -0.009149 
