48
0 1
C       -3.968354   -0.953730    0.722730 
C       -3.592453    0.331215    1.362276 
C       -3.689754    1.334379    0.356451 
C       -3.935554   -0.725079   -0.773782 
C       -3.705252    0.609618   -1.004133 
C       -2.959685   -1.652136   -1.310421 
C       -2.971227   -1.891960    1.029919 
C       -2.495961   -2.464009   -0.216438 
C       -2.351665    0.160878    2.063954 
C       -1.947020   -1.265126    1.911340 
C       -1.327288    1.158352    2.018384 
C       -2.705782    2.298335    0.292140 
C       -1.591072    2.294080    1.198592 
C       -2.519431    1.092796   -1.748963 
C       -2.098693    2.254771   -1.095802 
C       -1.773836   -1.197942   -2.048163 
C       -1.484227    0.173625   -2.231424 
C       -1.100040   -2.691422   -0.373318 
C       -0.677275   -2.056943   -1.624786 
C       -0.616945   -1.611322    1.807422 
C       -0.235684   -2.549965    0.730809 
C        0.083098    0.766823    2.230813 
C        0.441319   -0.654164    2.229443 
C        1.107886    1.677732    1.922690 
C       -0.472485    2.844740    0.433711 
C       -0.725189    2.611627   -0.979594 
C        0.812570    2.730761    0.921363 
C       -0.073113    0.599588   -2.260751 
C        0.261460    1.932014   -1.748968 
C        0.669821   -1.729681   -1.820537 
C        0.991082   -0.380676   -2.261781 
C        1.117772   -2.688590    0.393818 
C        1.574120   -2.426202   -0.941089 
C        1.782142   -1.023031    2.116033 
C        2.143582   -2.226623    1.323886 
C        2.505082    1.285090    1.703543 
C        2.867949   -0.055851    1.860588 
C        1.853582    2.738196   -0.036098 
C        1.598714    2.248737   -1.369100 
C        3.009165    1.999593    0.538610 
C        2.375081    0.028756   -2.078133 
C        2.663809    1.343466   -1.687711 
C        3.633442    1.316095   -0.512266 
C        2.980955   -2.047943   -0.847429 
C        3.327700   -2.021046    0.619618 
C        3.812762   -0.648886    0.913489 
C        3.356233   -0.852280   -1.407612 
C        4.048657   -0.016662   -0.323321 
