48
0 1
C       -3.414889    1.132960   -0.626227 
C       -3.396194   -0.207152   -1.018148 
C       -3.337014   -1.052701    0.220738 
C       -3.199188    1.185004    0.883819 
C       -3.145513   -0.147172    1.356510 
C       -2.136500    2.112254    1.141476 
C       -2.505297    2.029261   -1.212905 
C       -1.826268    2.770735   -0.101740 
C       -1.497528    1.587648   -2.117088 
C       -2.408772   -0.693898   -1.939819 
C       -1.460542    0.214574   -2.520602 
C       -2.482313   -2.132252   -0.029753 
C       -1.956218   -1.995278   -1.409462 
C       -1.586286   -2.557486    0.997528 
C       -2.135783   -0.487844    2.292527 
C       -1.532935   -1.798764    2.178149 
C       -1.042755    1.749153    2.026335 
C       -1.092740    0.448937    2.626965 
C        0.238147    2.285707    1.756866 
C       -0.499794    2.995854   -0.501721 
C       -0.238152    2.285711   -1.756858 
C        0.499794    2.995856    0.501723 
C        1.042757    1.749154   -2.026331 
C       -0.163394   -0.313485   -2.843251 
C        1.092738    0.448945   -2.626964 
C       -0.698282   -2.461975   -1.709489 
C        0.114854   -1.668225   -2.593936 
C       -0.206455   -2.995866    0.652847 
C        0.206459   -2.995864   -0.652852 
C       -0.114852   -1.668231    2.593935 
C        0.163394   -0.313492    2.843251 
C        0.698285   -2.461978    1.709484 
C        1.497526    1.587645    2.117093 
C        1.460541    0.214570    2.520603 
C        1.826265    2.770739    0.101746 
C        2.136501    2.112255   -1.141476 
C        2.505294    2.029260    1.212909 
C        3.199185    1.185010   -0.883817 
C        3.414888    1.132961    0.626227 
C        2.135785   -0.487840   -2.292526 
C        1.532937   -1.798757   -2.178151 
C        1.586289   -2.557484   -0.997532 
C        3.145513   -0.147171   -1.356511 
C        1.956220   -1.995280    1.409458 
C        2.408773   -0.693900    1.939816 
C        3.396193   -0.207151    1.018146 
C        2.482314   -2.132251    0.029748 
C        3.337014   -1.052697   -0.220742 
