48
0 1
C        4.202082    0.033644   -0.091892 
C        3.773414    0.861703   -1.101503 
C        2.925782    1.951497   -0.524812 
C        3.613148    0.544571    1.203767 
C        2.764807    1.707852    0.885672 
C        3.020993   -0.537579    1.826278 
C        3.594965   -1.331458   -0.324757 
C        3.025246   -1.720828    0.871693 
C        2.870367    0.095739   -2.024302 
C        2.716633   -1.236968   -1.510547 
C        1.771605    2.060158   -1.331079 
C        1.720229    0.886742   -2.252452 
C        0.570422    2.525982   -0.757354 
C        1.459766    1.833990    1.452973 
C        0.446450    2.532032    0.676959 
C        1.692211   -0.459385    2.375448 
C        0.988567    0.768789    2.351529 
C        1.707576   -2.295220    0.920185 
C        0.966255   -1.671459    2.012673 
C        1.412115   -1.813065   -1.489409 
C        1.011273   -2.557656   -0.285515 
C        0.474004    0.257952   -2.490148 
C        0.344037   -1.144544   -2.215471 
C       -0.598477    2.286813   -1.572991 
C       -0.674083    1.123736   -2.371211 
C       -1.918440    2.552965   -1.022968 
C       -0.895671    2.612744    1.215433 
C       -2.065955    2.743213    0.324527 
C       -0.409494    0.654624    2.623975 
C       -1.272362    1.739156    2.237269 
C       -0.443309   -1.742575    2.062468 
C       -1.137319   -0.575575    2.513943 
C       -0.354623   -2.898273   -0.115933 
C       -1.075014   -2.570704    1.085196 
C       -0.998447   -1.682908   -2.128181 
C       -1.270696   -2.727136   -1.240146 
C       -2.050598    0.586149   -2.299467 
C       -2.830269    1.444699   -1.485165 
C       -2.217561   -0.803763   -2.190707 
C       -3.128878    1.768722    0.805231 
C       -2.629326    1.164648    1.942517 
C       -2.520863   -0.279433    2.055029 
C       -3.548583    0.951091   -0.335007 
C       -2.473465   -2.322575    0.712401 
C       -2.619132   -2.528118   -0.668549 
C       -3.172867   -1.287280   -1.252477 
C       -3.133588   -1.061621    1.092326 
C       -3.632926   -0.441088   -0.165450 
