48
0 1
C        4.060198    0.648236   -1.019539 
C        4.203010   -0.779994   -0.668507 
C        4.050878   -0.889252    0.806621 
C        3.659531    1.372773    0.241097 
C        3.637631    0.474067    1.299567 
C        2.420855    2.095679   -0.058384 
C        2.968744    0.763616   -1.901749 
C        2.041098    1.764557   -1.389730 
C        3.145344   -1.493202   -1.270529 
C        2.348169   -0.567031   -2.120783 
C        2.982480   -1.752815    1.072970 
C        2.397822   -2.224722   -0.216056 
C        2.381935    0.298350    2.052068 
C        2.025206   -1.083572    1.969464 
C        1.370862    2.259821    0.929814 
C        1.331500    1.275720    2.021386 
C        0.159133    2.742670    0.450310 
C        0.662461    1.717733   -1.760118 
C       -0.166259    2.592620   -0.994620 
C        0.977842   -0.669903   -2.170541 
C        0.091428    0.514849   -2.272594 
C        1.045145   -2.357951   -0.309835 
C        0.354827   -1.840805   -1.520397 
C        0.667294   -1.480261    1.980959 
C        0.198983   -2.363468    0.914101 
C        0.058302    0.853050    2.457668 
C       -0.266278   -0.563992    2.497803 
C       -1.112558    2.562551    1.163645 
C       -1.182053    1.555615    2.121004 
C       -1.544793    2.526909   -1.159437 
C       -2.190504    2.651810    0.198200 
C       -1.344873    0.354647   -2.315047 
C       -2.172247    1.433631   -1.855218 
C       -0.979243   -2.043540   -1.654590 
C       -1.893781   -0.978838   -2.171184 
C       -1.147997   -2.595540    0.785558 
C       -1.718497   -2.734522   -0.573361 
C       -1.699085   -0.737614    2.292996 
C       -2.297072    0.592457    2.105573 
C       -2.152370   -1.836334    1.568357 
C       -3.278045    1.808376    0.232430 
C       -3.408230    1.156430   -1.132134 
C       -3.377010    0.744474    1.225737 
C       -3.166714   -1.208489   -1.600999 
C       -3.033080   -2.300299   -0.583329 
C       -3.349538   -1.691781    0.747194 
C       -3.863463   -0.133731   -0.957862 
C       -3.896985   -0.432984    0.542020 
