48
0 1
C       -3.937540   -1.093781   -0.176373 
C       -3.248515   -1.100069   -1.409618 
C       -3.031810    0.259171   -1.865682 
C       -3.979980    0.334908    0.301952 
C       -3.485135    1.153036   -0.727309 
C       -3.310511    0.389491    1.563693 
C       -3.096614   -1.839893    0.788809 
C       -2.790717   -1.008963    1.852883 
C       -2.038949   -1.918366   -1.290871 
C       -1.952508   -2.395256    0.048124 
C       -0.834399   -1.535887   -1.984086 
C       -1.781251    0.686425   -2.298198 
C       -0.650256   -0.215878   -2.476157 
C       -2.427643    2.095682   -0.493469 
C       -1.511080    1.984875   -1.641340 
C       -2.239372    1.277207    1.796794 
C       -1.846450    2.241825    0.806388 
C       -1.431366   -0.866777    2.341588 
C       -1.140712    0.509165    2.448710 
C       -0.661691   -2.548514    0.688618 
C       -0.398091   -1.799623    1.924288 
C        0.321875   -2.287834   -1.572110 
C        0.410596   -2.781871   -0.165225 
C        1.582627   -1.906480   -1.985377 
C        0.705846    0.358387   -2.534788 
C        1.838896   -0.532460   -2.416310 
C       -0.233515    2.459952   -1.566491 
C        0.910592    1.684387   -2.099067 
C       -0.496568    2.724882    0.867371 
C        0.179542    3.048403   -0.318718 
C        0.221094    0.975012    2.474217 
C        0.527557    2.155980    1.792533 
C        0.910862   -1.448818    2.224835 
C        1.240764   -0.042069    2.595818 
C        1.803646   -2.628713    0.256148 
C        2.575611   -2.241476   -0.906469 
C        2.056823   -1.981165    1.475658 
C        3.048321   -0.125472   -1.807498 
C        3.512699   -1.211930   -0.858212 
C        2.085563    2.049322   -1.296373 
C        1.631519    2.789748   -0.160590 
C        1.851467    2.323238    1.166888 
C        3.140895    1.129556   -1.103538 
C        2.554236    0.220095    2.203480 
C        3.119895   -1.004347    1.538686 
C        3.811329   -0.595360    0.393238 
C        2.872625    1.366911    1.367907 
C        3.609794    0.893343    0.235243 
