48
0 1
C       -4.290113    0.632371   -0.345439 
C       -4.290117   -0.632365    0.345428 
C       -3.563675   -1.580155   -0.419502 
C       -3.522282    0.424953   -1.630658 
C       -2.954751   -0.906217   -1.603015 
C       -2.656959    1.512453   -1.787144 
C       -3.563670    1.580155    0.419497 
C       -2.685490    2.307571   -0.479038 
C       -3.522284   -0.424947    1.630649 
C       -2.954759    0.906220    1.603014 
C       -2.685494   -2.307568    0.479035 
C       -2.656964   -1.512451    1.787142 
C       -1.388019   -2.568384    0.131953 
C       -1.574597   -1.089277   -1.889223 
C       -0.855256   -2.159792   -1.170623 
C       -1.291261    1.325281   -2.121795 
C       -0.733986    0.034471   -2.286436 
C       -1.388014    2.568384   -0.131952 
C       -0.495858    2.250571   -1.295292 
C       -1.574602    1.089281    1.889227 
C       -0.855257    2.159793    1.170627 
C       -1.291275   -1.325283    2.121800 
C       -0.495868   -2.250572    1.295292 
C       -0.733996   -0.034471    2.286444 
C        0.855258   -2.159810    1.170614 
C        0.495853   -2.250551   -1.295305 
C        1.388013   -2.568383   -0.131974 
C        0.733997   -0.034444   -2.286444 
C        1.291265   -1.325266   -2.121812 
C        0.855266    2.159808   -1.170610 
C        1.574604    1.089296   -1.889224 
C        0.495857    2.250556    1.295306 
C        1.388018    2.568381    0.131975 
C        0.733983    0.034450    2.286440 
C        1.574599   -1.089299    1.889216 
C        1.291260    1.325259    2.121806 
C        2.954754   -0.906230    1.603008 
C        2.685488   -2.307567   -0.479057 
C        2.656954   -1.512443   -1.787160 
C        3.563672   -1.580160    0.419486 
C        2.954765    0.906231   -1.603008 
C        3.522284   -0.424937   -1.630656 
C        4.290120   -0.632367   -0.345435 
C        2.685495    2.307563    0.479059 
C        2.656960    1.512434    1.787158 
C        3.522284    0.424938    1.630664 
C        3.563676    1.580157   -0.419484 
C        4.290119    0.632362    0.345447 
