48
0 1
C       -3.390468   -1.363441   -0.251094 
C       -3.707575   -0.124843    0.338559 
C       -3.357280    0.973107   -0.653259 
C       -2.886583   -1.053738   -1.659450 
C       -2.695930    0.397278   -1.753410 
C       -1.873549   -1.916014   -1.940481 
C       -2.467688   -2.249226    0.353852 
C       -1.652678   -2.811312   -0.751526 
C       -1.771019   -1.848806    1.557702 
C       -3.131816    0.221665    1.565050 
C       -2.080818   -0.581990    2.137523 
C       -2.763701    2.052137    0.096097 
C       -2.631798    1.624826    1.469691 
C       -1.675762    2.712490   -0.489189 
C       -1.409293    0.906896   -2.213217 
C       -1.027961    2.156357   -1.701763 
C       -0.555045   -1.463857   -2.379032 
C       -0.339117   -0.056513   -2.598205 
C       -0.303897   -3.037043   -0.650692 
C        0.415767   -2.272728   -1.724640 
C       -0.416097   -2.272667    1.725307 
C        0.303435   -3.037332    0.651170 
C        0.554644   -1.463744    2.379207 
C       -1.006321    0.330860    2.565962 
C       -1.387931    1.693098    2.142066 
C        0.339206   -0.056207    2.598116 
C       -0.637146    3.168227    0.377736 
C       -0.393308    2.544889    1.634433 
C        0.393571    2.544491   -1.634773 
C        0.637561    3.168013   -0.378129 
C        1.006377    0.330331   -2.566134 
C        1.388095    1.692647   -2.142199 
C        1.770564   -1.849034   -1.557383 
C        2.080997   -0.582377   -2.137481 
C        1.652224   -2.810716    0.751460 
C        1.873305   -1.915535    1.940439 
C        2.467471   -2.249321   -0.353649 
C        2.886434   -1.053800    1.659786 
C        3.390068   -1.363689    0.250862 
C        1.409566    0.906924    2.213147 
C        1.028248    2.156422    1.701542 
C        1.676181    2.712305    0.488939 
C        2.696112    0.397145    1.753267 
C        2.631946    1.624200   -1.469785 
C        3.131572    0.220886   -1.564950 
C        3.707698   -0.125401   -0.338350 
C        2.764058    2.051555   -0.096278 
C        3.357680    0.972587    0.653155 
