48
0 1
C        3.410448   -1.743014   -0.342259 
C        3.537701   -0.847808    0.844000 
C        3.644090    0.456973    0.368074 
C        3.131348   -0.955434   -1.486314 
C        3.361486    0.430414   -1.140423 
C        1.812970   -1.333907   -2.029363 
C        2.280672   -2.630085   -0.094737 
C        1.432388   -2.542788   -1.269106 
C        2.451774   -1.195178    1.755462 
C        1.705702   -2.341001    1.174920 
C        1.707836   -0.171647    2.324748 
C        2.837467    1.507280    0.918061 
C        1.957508    1.221361    1.967019 
C        2.406827    1.379564   -1.417916 
C        2.289820    2.270262   -0.213151 
C        0.823381   -0.385437   -2.331799 
C        1.164495    1.052201   -2.151927 
C       -0.598639   -0.784475   -2.297458 
C        0.110152   -2.829256   -1.091732 
C       -0.904877   -2.090835   -1.841428 
C        0.290738   -2.479914    1.355279 
C       -0.408613   -3.060951    0.261879 
C        0.256224   -0.316928    2.539643 
C       -0.441021   -1.493781    2.167378 
C        0.688390    1.946737    2.061098 
C       -0.355010    0.986236    2.436810 
C        1.207230    3.070483   -0.058008 
C        0.393399    2.976788    1.181131 
C        0.160389    1.988469   -2.108937 
C        0.262618    3.157654   -1.184335 
C       -1.659596    0.216188   -2.166440 
C       -1.271924    1.591790   -2.108332 
C       -2.875472   -0.111138   -1.484315 
C       -2.164975   -2.416253   -1.221977 
C       -1.834175   -2.971409    0.167825 
C       -3.166777   -1.477423   -1.084362 
C       -1.853674   -1.358732    2.002188 
C       -2.574983   -2.269779    1.101291 
C       -3.586709   -1.461361    0.365187 
C       -1.698213    1.137840    1.992455 
C       -3.306281    0.732633   -0.357353 
C       -2.455795   -0.049673    1.870170 
C       -3.485731   -0.150264    0.806960 
C       -0.994743    3.196142    0.804112 
C       -0.997584    3.439275   -0.676371 
C       -1.964949    2.488195   -1.253607 
C       -1.988323    2.263002    1.109061 
C       -2.736991    1.958985   -0.163097 
