48
0 1
C       -3.680483    0.135079   -1.392647 
C       -3.715628   -1.107028   -0.790458 
C       -3.486807   -0.941352    0.679402 
C       -3.436625    1.189614   -0.366585 
C       -3.389520    0.506177    0.945647 
C       -2.346899    1.955900   -0.779083 
C       -2.520512    0.181774   -2.334210 
C       -1.777848    1.347405   -2.032984 
C       -2.579409   -1.918726   -1.311474 
C       -1.847274   -1.088846   -2.295241 
C       -2.414905   -1.764756    1.038791 
C       -1.860192   -2.378047   -0.214033 
C       -1.489110   -1.383421    2.084131 
C       -2.448903    0.927527    1.848173 
C       -1.607731   -0.046308    2.584508 
C       -1.422894    2.522505    0.185784 
C       -1.574235    2.094091    1.550814 
C       -0.133911    2.849961   -0.246370 
C       -0.391798    1.354967   -2.274577 
C        0.364425    2.389641   -1.583842 
C       -0.438531   -1.129056   -2.327158 
C        0.266785    0.113540   -2.598054 
C       -0.448968   -2.630882   -0.326962 
C        0.242524   -2.162876   -1.522029 
C       -0.206474   -1.964904    2.072933 
C        0.251251   -2.747447    0.891768 
C        0.961222   -1.268218    2.588522 
C       -0.442832    0.637593    3.010032 
C       -0.428716    1.981474    2.361265 
C        0.864710    0.096378    2.906687 
C        1.021640    2.822453    0.639133 
C        0.900124    2.224588    1.894644 
C        1.758684    1.066023    2.226503 
C        1.744758    2.364006   -1.559545 
C        2.197979    2.515536   -0.135222 
C        1.713651    0.074912   -2.588132 
C        2.469135    1.240411   -2.089580 
C        1.652155   -2.176318   -1.520892 
C        2.372480   -1.072291   -2.143284 
C        1.675279   -2.712871    0.872954 
C        2.133962   -1.688624    1.877560 
C        2.360884   -2.496648   -0.310002 
C        2.799293    0.643784    1.369902 
C        3.065196    1.454910    0.182132 
C        3.403239    0.802933   -1.105660 
C        3.472428   -0.633330   -1.180578 
C        3.026485   -0.794576    1.265102 
C        3.371916   -1.386658   -0.047785 
