48
0 1
C       -3.849232   -0.102170   -0.964342 
C       -3.842394    0.246736    0.401062 
C       -3.519322   -0.946135    1.167712 
C       -3.214145   -1.450540   -1.116937 
C       -3.064053   -2.016949    0.156081 
C       -2.054919   -1.289702   -1.940555 
C       -3.009252    0.845973   -1.698096 
C       -1.967120    0.153851   -2.338260 
C       -3.016917    1.462732    0.587032 
C       -2.650675    1.905021   -0.754251 
C       -2.045877    1.535757    1.638813 
C       -2.567406   -0.875332    2.140880 
C       -1.789659    0.342373    2.427298 
C       -1.794101   -2.520874    0.586031 
C       -1.558826   -1.974046    1.923354 
C       -0.861634   -1.961224   -1.605630 
C       -0.677918   -2.554407   -0.293868 
C        0.321067   -1.501738   -2.291287 
C       -0.675896    0.786213   -2.514838 
C        0.460065   -0.067735   -2.681544 
C       -1.442346    2.567027   -0.970040 
C       -0.442595    2.037838   -1.933329 
C       -0.907544    2.376167    1.434084 
C       -0.726632    3.001140    0.168288 
C        0.442605    2.037870    1.933294 
C       -0.460058   -0.067687    2.681557 
C       -0.321066   -1.501698    2.291315 
C        0.675907    0.786257    2.514830 
C        0.677904   -2.554404    0.293906 
C        0.861621   -1.961201    1.605647 
C        1.558820   -1.974084   -1.923321 
C        1.794096   -2.520885   -0.585987 
C        1.789655    0.342322   -2.427295 
C        2.567398   -0.875373   -2.140860 
C        0.907552    2.376138   -1.434122 
C        0.726641    3.001136   -0.168339 
C        1.442356    2.567043    0.969995 
C        2.045877    1.535718   -1.638835 
C        2.650682    1.905029    0.754216 
C        3.016920    1.462715   -0.587058 
C        1.967126    0.153887    2.338254 
C        2.054920   -1.289672    1.940571 
C        3.009257    0.845996    1.698080 
C        3.064044   -2.016956   -0.156046 
C        3.519313   -0.946160   -1.167695 
C        3.842391    0.246720   -0.401068 
C        3.214138   -1.450525    1.116962 
C        3.849230   -0.102162    0.964340 
