48
0 1
C        4.257247   -0.085587   -0.568559 
C        3.889445    1.234359   -0.664684 
C        3.285872    1.687389    0.632626 
C        3.922685   -0.579988    0.819166 
C        3.287046    0.529002    1.540615 
C        3.216375   -1.767891    0.668472 
C        3.411239   -0.882860   -1.526898 
C        2.909432   -1.956204   -0.810590 
C        2.807777    1.369762   -1.691198 
C        2.462181    0.039182   -2.181549 
C        2.080876    2.326784    0.341098 
C        1.789832    2.136086   -1.129044 
C        0.960978    2.233276    1.240426 
C        2.109714    0.273100    2.247603 
C        0.988615    1.221527    2.217420 
C        1.983614   -2.024137    1.374136 
C        1.494411   -1.057751    2.247867 
C        1.527008   -2.320240   -0.911259 
C        1.008308   -2.587220    0.425686 
C        1.098326   -0.304447   -2.308550 
C        0.688467   -1.627404   -1.830941 
C        0.444105    1.929454   -1.541846 
C        0.060476    0.734879   -2.218081 
C       -0.317802    2.612888    0.743659 
C       -0.532293    2.613397   -0.740889 
C       -1.530605    2.209398    1.345977 
C       -0.253478    0.509936    2.514353 
C        0.046170   -0.905581    2.415816 
C       -1.530720    1.014991    2.170173 
C       -0.369187   -2.551633    0.664959 
C       -0.886047   -1.765952    1.796883 
C       -0.680999   -1.897546   -1.685629 
C       -1.176677   -2.566022   -0.518827 
C       -1.372978    0.398666   -2.288119 
C       -1.736640   -0.985243   -2.172860 
C       -1.869324    2.434119   -0.994323 
C       -2.587700    2.352587    0.329097 
C       -2.352236    1.331131   -1.819020 
C       -3.633740    1.493536    0.202455 
C       -3.590013    0.892735   -1.210377 
C       -2.582532    0.057500    1.981482 
C       -2.245113   -1.325204    1.765161 
C       -3.754719    0.367333    1.123357 
C       -2.592945   -2.325133   -0.439663 
C       -2.960269   -1.402077   -1.586936 
C       -3.904423   -0.463975   -1.086852 
C       -3.161045   -1.848787    0.731720 
C       -4.108714   -0.772136    0.386484 
