48
0 1
C       -3.761451   -1.153345    0.418117 
C       -3.638930   -0.579232   -0.971022 
C       -3.662419    0.819219   -0.833913 
C       -3.451081   -0.033962    1.361102 
C       -3.485562    1.147852    0.663097 
C       -2.221153   -0.414423    2.085145 
C       -2.786494   -2.122542    0.574422 
C       -1.877958   -1.747976    1.687454 
C       -2.514699   -1.202248   -1.615836 
C       -2.131497   -2.334834   -0.734836 
C       -1.458604   -0.440500   -2.233324 
C       -2.707526    1.572188   -1.522521 
C       -1.608037    0.972457   -2.223472 
C       -2.390681    2.107199    0.764866 
C       -2.109294    2.542806   -0.551156 
C       -1.182027    0.547009    2.316259 
C       -1.281974    1.873923    1.675374 
C        0.106980    0.016196    2.558545 
C       -0.535986   -2.203853    1.672117 
C        0.438260   -1.367833    2.264181 
C       -0.862637   -2.777280   -0.741933 
C       -0.101439   -2.992850    0.530674 
C       -0.080226   -0.971356   -2.278333 
C        0.102586   -2.263948   -1.730047 
C        1.097232   -0.093732   -2.342884 
C       -0.420833    1.827308   -2.011900 
C       -0.778738    2.793398   -0.974581 
C        0.897194    1.356464   -2.122383 
C       -0.084927    2.552250    1.386661 
C        0.145668    3.095345    0.032008 
C        1.329938    0.803655    2.390622 
C        1.225906    2.084125    1.863684 
C        1.858472   -1.447699    1.906448 
C        2.426775   -0.094846    2.002505 
C        1.238204   -3.070393    0.199898 
C        1.375472   -2.721377   -1.273672 
C        2.271978   -2.328512    0.902382 
C        2.375884   -0.629271   -2.022378 
C        2.497222   -1.946791   -1.448387 
C        3.200761   -1.827192   -0.105901 
C        3.402747    0.328004    1.088928 
C        3.368012    0.178602   -1.300993 
C        3.727620   -0.564294   -0.019537 
C        1.896029    2.121476   -1.407739 
C        1.503218    2.948537   -0.315944 
C        2.245683    2.499437    0.912178 
C        3.139754    1.484761   -0.993298 
C        3.262579    1.658078    0.519324 
