48
0 1
C       -3.797678   -0.489721   -0.827892 
C       -3.758733    0.488117    0.304186 
C       -3.220636    1.680715   -0.188452 
C       -3.039746    0.125418   -1.956465 
C       -2.738033    1.430798   -1.613880 
C       -1.925768   -0.761946   -2.261160 
C       -3.122406   -1.643213   -0.438299 
C       -2.013509   -1.906082   -1.376580 
C       -3.118237   -0.169509    1.431064 
C       -2.794264   -1.560625    1.002267 
C       -2.156464    0.529583    2.159994 
C       -2.158449    2.354260    0.492898 
C       -1.704588    1.842970    1.717851 
C       -1.396062    1.958062   -1.728509 
C       -1.141865    2.725256   -0.514952 
C       -0.646572   -0.218569   -2.583391 
C       -0.344658    1.197742   -2.308069 
C        0.415011   -1.152712   -2.507595 
C       -0.855884   -2.581963   -0.929705 
C        0.346980   -2.318853   -1.635100 
C       -1.661038   -2.171964    1.441370 
C       -0.735661   -2.868280    0.490251 
C       -0.976148   -0.159929    2.716959 
C       -0.800403   -1.523400    2.456421 
C       -0.295052    1.982449    2.077943 
C        0.172617    0.712478    2.694094 
C        0.154095    2.964475   -0.131727 
C        0.555457    2.698743    1.267028 
C        1.030661    1.611609   -2.027637 
C        1.256891    2.565390   -0.998489 
C        1.765007   -0.678144   -2.538829 
C        2.098014    0.655934   -2.280570 
C        1.667837   -2.505941   -1.026439 
C        2.586712   -1.592539   -1.665828 
C        0.527518   -2.894617    1.074606 
C        0.521017   -2.007437    2.284950 
C        1.755106   -2.641549    0.364316 
C        1.496010    0.233460    2.475489 
C        1.660393   -1.173889    2.239307 
C        2.542454   -1.676236    1.150168 
C        1.955967    2.353102    1.225618 
C        2.422499    2.463143   -0.119866 
C        2.454854    1.104646    1.814778 
C        3.296630    0.618212   -1.411355 
C        3.467909   -0.818788   -0.940657 
C        3.421584   -0.807157    0.517692 
C        3.409478    1.440463   -0.324730 
C        3.421151    0.586040    0.936928 
