48
0 1
C       -3.687195    0.357731    0.208598 
C       -3.506803   -0.873682    0.826282 
C       -2.979081   -1.854851   -0.200096 
C       -3.373054    0.155561   -1.269862 
C       -2.732634   -1.154961   -1.401552 
C       -2.756180    1.270119   -1.739315 
C       -2.973934    1.531929    0.644828 
C       -2.647846    2.257948   -0.582787 
C       -1.975123    1.437651    1.670077 
C       -2.657711   -0.945580    1.955852 
C       -1.877264    0.169457    2.346898 
C       -1.953111   -2.636360    0.442732 
C       -1.739129   -2.124575    1.780504 
C       -0.818069   -2.933346   -0.291474 
C       -1.437420   -1.236680   -2.052505 
C       -0.650070   -2.338634   -1.634538 
C       -1.432640    1.217038   -2.381711 
C       -0.728628   -0.031981   -2.510673 
C       -1.459414    2.909301   -0.721378 
C       -0.734082    2.351881   -1.928868 
C       -0.735584    2.227882    1.543160 
C       -0.492325    2.964711    0.353760 
C        0.456801    1.783803    2.225313 
C       -0.551238   -0.385724    2.719797 
C       -0.456468   -1.783541    2.225592 
C        0.551645    0.386043    2.719668 
C        0.492381   -2.964670    0.354033 
C        0.735818   -2.227701    1.543310 
C        0.733794   -2.352106   -1.928702 
C        1.459308   -2.909389   -0.721258 
C        0.728250    0.031692   -2.510785 
C        1.432280   -1.217324   -2.381782 
C        0.649823    2.338445   -1.634915 
C        0.818025    2.933312   -0.291939 
C        1.437107    1.236435   -2.052867 
C        1.739397    2.124785    1.779989 
C        1.953176    2.636412    0.442127 
C        1.877618   -0.169179    2.346634 
C        1.975375   -1.437454    1.669947 
C        2.658007    0.945812    1.955339 
C        2.647759   -2.258017   -0.582920 
C        2.755917   -1.270326   -1.739582 
C        2.974031   -1.531854    0.644558 
C        2.732424    1.154797   -1.402100 
C        2.979050    1.854828   -0.200766 
C        3.506929    0.873781    0.825650 
C        3.372861   -0.155715   -1.270355 
C        3.687227   -0.357706    0.208083 
