48
0 1
C        3.794557   -1.202393    0.606557 
C        3.599568   -1.496851   -0.816422 
C        3.333035   -0.290779   -1.479510 
C        3.661256    0.282485    0.749683 
C        3.347007    0.842182   -0.505255 
C        2.746964    0.523362    1.856503 
C        2.717578   -1.762530    1.316541 
C        2.099925   -0.749353    2.191547 
C        2.348240   -2.321869   -0.920208 
C        1.821496   -2.482313    0.385625 
C        2.142009   -0.460171   -2.325770 
C        1.495516   -1.749317   -1.935520 
C        1.355639    0.612738   -2.574445 
C        2.356142    1.893413   -0.624677 
C        1.515567    1.888104   -1.800607 
C        1.972724    1.679798    1.824094 
C        1.772078    2.411984    0.555259 
C        0.722924    1.634882    2.508278 
C        0.731575   -0.818563    2.478234 
C        0.086037    0.417707    2.815528 
C        0.417708   -2.445711    0.588473 
C       -0.109542   -1.839375    1.810497 
C        0.109476   -1.838946   -1.810809 
C       -0.417624   -2.445455   -0.589070 
C       -0.086047    0.418354   -2.815420 
C       -0.731625   -0.818011   -2.478458 
C        0.260094    2.497582   -1.786246 
C       -0.722902    1.635425   -2.507903 
C        0.392299    2.934232    0.575246 
C       -0.260088    2.497193    1.786816 
C       -0.392274    2.934356   -0.574592 
C       -1.355635    0.612159    2.574585 
C       -1.515554    1.887707    1.801037 
C       -1.495484   -1.749765    1.935173 
C       -2.141993   -0.460720    2.325639 
C       -1.821532   -2.482120   -0.386123 
C       -2.348285   -2.322103    0.919641 
C       -2.099934   -0.748866   -2.191745 
C       -2.717574   -1.762189   -1.316941 
C       -1.972722    1.680204   -1.823686 
C       -1.772066    2.412104   -0.554727 
C       -2.356140    1.893272    0.625100 
C       -2.746985    0.523816   -1.856383 
C       -3.333004   -0.291125    1.479413 
C       -3.599603   -1.497041    0.816069 
C       -3.794586   -1.202236   -0.606836 
C       -3.346977    0.842079    0.505444 
C       -3.661237    0.282665   -0.749628 
