48
0 1
C        3.282566   -1.993924    0.397989 
C        3.743492   -0.580572    0.303106 
C        3.499008   -0.137863   -0.994875 
C        2.605016   -2.318817   -0.899667 
C        2.730211   -1.219268   -1.734933 
C        1.258657   -2.752960   -0.584257 
C        2.307185   -2.055005    1.395508 
C        1.088615   -2.662190    0.854817 
C        3.115507    0.147715    1.405575 
C        2.164691   -0.749300    2.069010 
C        2.733337    1.474869    1.177019 
C        2.840320    1.117418   -1.259197 
C        2.606568    1.993121   -0.206591 
C        1.579321   -0.604030   -2.364810 
C        1.754989    0.859992   -2.233213 
C        0.164879   -2.365733   -1.414075 
C        0.304340   -1.185934   -2.286124 
C       -1.088669   -2.662011   -0.854729 
C       -0.164756   -2.365908    1.414038 
C       -1.258654   -2.752886    0.584049 
C        0.884674   -0.322920    2.483172 
C       -0.304353   -1.185976    2.286151 
C        1.613303    1.959606    1.909256 
C        0.672007    1.095317    2.514850 
C        1.424946    2.879540   -0.246345 
C        0.867271    2.945960    1.065094 
C        0.665486    1.677943   -2.286733 
C        0.521186    2.796907   -1.323818 
C       -0.884691   -0.322850   -2.483169 
C       -0.672008    1.095410   -2.514799 
C       -2.307225   -2.054937   -1.395565 
C       -2.164682   -0.749220   -2.069045 
C       -2.605142   -2.318835    0.899609 
C       -3.282649   -1.993910   -0.398070 
C       -1.579256   -0.604096    2.364760 
C       -2.730243   -1.219333    1.734814 
C       -0.665458    1.677859    2.286782 
C       -0.521153    2.796863    1.323904 
C       -1.754972    0.859898    2.233221 
C       -0.867248    2.946001   -1.065001 
C       -1.613266    1.959675   -1.909199 
C       -1.424916    2.879531    0.246428 
C       -3.115525    0.147801   -1.405570 
C       -3.743512   -0.580518   -0.303149 
C       -3.499017   -0.137850    0.994858 
C       -2.840312    1.117377    1.259232 
C       -2.733329    1.474920   -1.176950 
C       -2.606543    1.993122    0.206643 
