48
0 1
C       -3.803258   -1.036587   -0.857342 
C       -4.077332    0.105115   -0.135358 
C       -3.379307    1.255634   -0.771454 
C       -2.842914   -0.679745   -1.955776 
C       -2.592563    0.777194   -1.866637 
C       -1.754413   -1.527077   -1.859136 
C       -3.078595   -1.996615    0.033087 
C       -1.921179   -2.397364   -0.639363 
C       -3.501285   -0.021275    1.250129 
C       -2.925679   -1.347328    1.346576 
C       -2.740194    1.980233    0.282051 
C       -2.702423    1.113417    1.508198 
C       -1.614259    2.701679   -0.057498 
C       -1.264403    1.272799   -2.059196 
C       -0.909510    2.414028   -1.302653 
C       -0.420370   -1.096975   -2.236921 
C       -0.177773    0.334163   -2.440220 
C        0.630868   -1.934255   -1.875800 
C       -0.741303   -2.749419    0.089355 
C        0.488094   -2.808995   -0.663888 
C       -1.688310   -1.469267    1.979570 
C       -0.666063   -2.363689    1.435456 
C       -1.446943    0.986030    2.216819 
C       -0.987486   -0.309118    2.504938 
C       -0.605632    2.920188    0.964260 
C       -0.426677    1.990988    1.989914 
C        0.503724    2.769879   -1.080396 
C        0.689307    3.120846    0.274538 
C        1.152379    0.764891   -2.416252 
C        1.521976    2.034257   -1.730453 
C        2.020537   -1.503738   -1.934131 
C        2.280930   -0.155821   -2.224172 
C        1.706251   -2.850621   -0.011545 
C        2.734224   -2.144582   -0.844702 
C        0.625057   -1.935816    1.995811 
C        0.462988   -0.631977    2.539189 
C        1.829712   -2.317568    1.358030 
C        1.033568    1.683876    2.076637 
C        1.710536    2.481217    1.070404 
C        1.480973    0.370918    2.368637 
C        2.744881    1.860269   -1.066683 
C        3.300726    0.524538   -1.447649 
C        2.836539    1.976236    0.391114 
C        3.554953   -1.409093    0.012077 
C        2.916772   -1.427719    1.387931 
C        2.750638   -0.053363    1.818616 
C        3.853492   -0.058224   -0.301920 
C        3.438748    0.787838    0.885808 
