48
0 1
C       -3.345114   -2.135135    0.000052 
C       -3.947071   -0.897928    0.000042 
C       -3.486081   -0.123977   -1.196695 
C       -2.443475   -2.212154   -1.195767 
C       -2.505133   -0.920374   -1.896390 
C       -1.196685   -2.623374   -0.755768 
C       -2.443357   -2.212188    1.195803 
C       -1.196657   -2.623329    0.755778 
C       -3.486026   -0.124038    1.196777 
C       -2.505012   -0.920439    1.896421 
C       -3.161965    1.187062   -0.751287 
C       -3.161936    1.187034    0.751384 
C       -2.127181    1.852002   -1.404003 
C       -1.292735   -0.315577   -2.356036 
C       -1.268264    1.105140   -2.304369 
C       -0.000077   -2.186811   -1.413268 
C       -0.000092   -1.024638   -2.223660 
C        1.196591   -2.623331   -0.755788 
C       -0.000007   -2.186830    1.413252 
C        1.196618   -2.623400    0.755737 
C       -1.292614   -0.315619    2.356052 
C        0.000052   -1.024657    2.223650 
C       -2.127136    1.851964    1.404071 
C       -1.268157    1.105085    2.304389 
C       -1.284374    2.842401   -0.691157 
C       -1.284355    2.842387    0.691220 
C       -0.000034    1.797499   -2.324012 
C        0.000013    2.865354   -1.382202 
C        1.292616   -0.315601   -2.356037 
C        1.268183    1.105076   -2.304363 
C        2.443298   -2.212233   -1.195806 
C        2.505002   -0.920450   -1.896416 
C        2.443414   -2.212231    1.195737 
C        3.345096   -2.135215   -0.000067 
C        1.292737   -0.315604    2.356018 
C        2.505121   -0.920427    1.896371 
C        0.000053    1.797481    2.324023 
C        0.000042    2.865342    1.382220 
C        1.268288    1.105094    2.304359 
C        1.284421    2.842389   -0.691206 
C        2.127178    1.851966   -1.404060 
C        1.284437    2.842391    0.691181 
C        2.127217    1.851978    1.404016 
C        3.486017   -0.124079   -1.196772 
C        3.947084   -0.898011   -0.000045 
C        3.486068   -0.124042    1.196692 
C        3.161984    1.187017   -0.751371 
C        3.162007    1.187031    0.751296 
