48
0 1
C        2.411889    1.354105   -2.020745 
C        3.185431    0.833420   -0.963842 
C        3.070813   -0.626613   -1.002905 
C        1.822384    0.191932   -2.760380 
C        2.152084   -1.002680   -2.088097 
C        0.458111    0.522289   -3.072276 
C        1.369063    2.288205   -1.779241 
C        0.128408    1.807834   -2.434944 
C        1.292953    2.872761   -0.495180 
C        2.970308    1.274116    0.398796 
C        2.106689    2.335172    0.623514 
C        2.896948   -1.115180    0.315175 
C        2.876902    0.052846    1.241702 
C        2.034590   -2.193232    0.516025 
C        1.144473   -2.007673   -1.848733 
C        1.201919   -2.687884   -0.573702 
C       -0.458111   -0.522289   -3.072276 
C       -0.128408   -1.807834   -2.434944 
C       -1.822384   -0.191932   -2.760380 
C       -1.144473    2.007673   -1.848733 
C       -2.152084    1.002680   -2.088097 
C        0.004808    3.178040    0.010043 
C       -1.201919    2.687884   -0.573702 
C        1.246298    2.327294    1.824833 
C       -0.015496    2.892905    1.467881 
C        2.070379    0.029825    2.349413 
C        1.246298    1.215961    2.685529 
C        1.257312   -2.269071    1.772801 
C        1.260786   -1.178007    2.657127 
C       -0.004808   -3.178040    0.010043 
C        0.015496   -2.892905    1.467881 
C       -1.369063   -2.288205   -1.779241 
C       -2.411889   -1.354105   -2.020745 
C       -1.292953   -2.872761   -0.495180 
C       -3.070813    0.626613   -1.002905 
C       -3.185431   -0.833420   -0.963842 
C       -2.034590    2.193232    0.516025 
C       -1.257312    2.269071    1.772801 
C       -2.896948    1.115180    0.315175 
C       -0.007120    0.744211    3.177208 
C        0.007120   -0.744211    3.177208 
C       -1.260786    1.178007    2.657127 
C       -1.246298   -2.327294    1.824833 
C       -2.106689   -2.335172    0.623514 
C       -2.970308   -1.274116    0.398796 
C       -2.876902   -0.052846    1.241702 
C       -1.246298   -1.215961    2.685529 
C       -2.070379   -0.029825    2.349413 
