48
0 1
C        2.585654   -2.646937   -0.216459 
C        1.305861   -3.168563   -0.323544 
C        0.572455   -2.924585    0.940267 
C        2.700930   -1.924911    1.074595 
C        1.428386   -2.068024    1.755829 
C        3.239817   -0.648791    0.826116 
C        2.780716   -1.622744   -1.286899 
C        3.316677   -0.450223   -0.668594 
C        0.696717   -2.634123   -1.562501 
C        1.595282   -1.552785   -2.065364 
C       -0.638575   -2.470640   -1.583769 
C       -0.818827   -2.766399    0.915933 
C       -1.485321   -2.782170   -0.387423 
C       -1.385316   -1.890960    1.905465 
C        0.858078   -0.940491    2.426818 
C       -0.554949   -0.898516    2.526860 
C        2.776116    0.432035    1.618206 
C        1.566830    0.303093    2.369642 
C        2.808703    1.768155    1.038285 
C        2.943248    0.774057   -1.214306 
C        2.894028    1.932794   -0.330486 
C        1.039196   -0.286834   -2.455331 
C        1.806457    0.856134   -2.127508 
C       -1.254038   -1.306751   -2.264525 
C       -0.431977   -0.155903   -2.587684 
C       -2.698328   -2.131739   -0.588855 
C       -2.549940   -1.187568   -1.762422 
C       -2.694642   -1.298943    1.687594 
C       -3.333457   -1.392047    0.463033 
C       -1.305417    0.395965    2.521277 
C       -2.593305    0.150118    2.059118 
C        0.822145    1.598563    2.271325 
C        1.588206    2.490871    1.520071 
C       -0.620802    1.625819    2.191683 
C        1.765560    2.805481   -0.783610 
C        1.146921    2.160046   -1.884905 
C        1.000867    3.190342    0.379325 
C       -1.048699    1.091749   -2.427755 
C       -0.246719    2.265226   -2.019407 
C       -3.108122    0.092908   -1.383442 
C       -3.606241    0.008050   -0.042611 
C       -3.170847    0.929140    0.964125 
C       -2.366176    1.228346   -1.764929 
C       -1.230289    2.494536    1.267320 
C       -0.389539    3.209157    0.278184 
C       -0.963171    2.965519   -1.013686 
C       -2.473105    2.084814    0.571195 
C       -2.271044    2.297727   -0.826253 
