48
0 1
C        4.188541   -0.869396   -0.147042 
C        3.632047   -1.605924    0.874375 
C        3.051425   -0.682252    1.906899 
C        4.025407    0.593183    0.167492 
C        3.306343    0.684970    1.446777 
C        3.461810    1.192939   -0.953396 
C        3.401593   -1.130101   -1.406943 
C        3.052307    0.106195   -1.937468 
C        2.482338   -2.397796    0.341758 
C        2.322192   -2.052536   -1.080407 
C        1.736073   -1.097104    2.162522 
C        1.403408   -2.197892    1.205832 
C        0.681931   -0.159689    2.431863 
C        2.246016    1.582741    1.547556 
C        1.002460    1.195632    2.220086 
C        2.351077    2.106823   -0.859696 
C        1.843737    2.421132    0.403197 
C        1.714368    0.392681   -2.372317 
C        1.373049    1.749638   -1.902494 
C        1.017041   -1.803129   -1.543886 
C        0.709662   -0.596844   -2.319057 
C        0.075574   -2.283388    0.706997 
C       -0.075628   -2.283424   -0.706853 
C       -0.709655   -0.596695    2.319159 
C       -1.017049   -1.803120    1.543934 
C       -1.714324    0.392785    2.372289 
C       -0.054626    2.102853    1.772423 
C        0.427859    2.747248    0.547801 
C       -1.373038    1.749724    1.902439 
C        0.054660    2.102789   -1.772493 
C       -0.427828    2.747225   -0.547901 
C       -0.681928   -0.159767   -2.431857 
C       -1.002451    1.195541   -2.220131 
C       -1.403384   -2.197968   -1.205782 
C       -1.736054   -1.097214   -2.162495 
C       -2.322193   -2.052490    1.080450 
C       -2.482337   -2.397759   -0.341631 
C       -3.052333    0.106276    1.937442 
C       -3.401661   -1.130022    1.407008 
C       -2.351069    2.106881    0.859619 
C       -1.843720    2.421129   -0.403295 
C       -2.246003    1.582693   -1.547622 
C       -3.461814    1.193002    0.953341 
C       -3.051410   -0.682332   -1.906888 
C       -3.632047   -1.605954   -0.874328 
C       -4.188597   -0.869385    0.147075 
C       -3.306335    0.684907   -1.446815 
C       -4.025435    0.593195   -0.167537 
