48
0 1
C       -3.884834   -0.745947   -1.176862 
C       -3.121285    0.254020   -1.972030 
C       -3.177417    1.476479   -1.316782 
C       -4.206925   -0.186610    0.080682 
C       -3.859190    1.232920    0.039194 
C       -3.560847   -0.995254    1.124242 
C       -2.975879   -1.899779   -0.975830 
C       -2.880494   -2.130608    0.394458 
C       -1.821602   -0.321965   -2.301192 
C       -1.750058   -1.658900   -1.735932 
C       -0.650082    0.479124   -2.281913 
C       -1.951889    2.212213   -1.076529 
C       -0.716446    1.790051   -1.636964 
C       -3.035641    1.762334    0.999134 
C       -1.950413    2.558190    0.322338 
C       -2.614077   -0.461538    2.003965 
C       -2.336796    0.959163    2.033431 
C       -1.575808   -2.305915    0.977108 
C       -1.404001   -1.340336    2.029863 
C       -0.511030   -2.140069   -1.254864 
C       -0.464050   -2.591672    0.134910 
C        0.615328   -0.217666   -2.315614 
C        0.690311   -1.564078   -1.823342 
C        1.799677    0.602622   -2.258519 
C        0.492809    2.254312   -0.985183 
C        1.739738    1.834117   -1.550257 
C       -0.782448    2.443732    1.075539 
C       -1.011168    1.402750    2.125821 
C        0.463396    2.519181    0.420468 
C       -0.104701   -0.887152    2.367936 
C        0.133493    0.557200    2.452754 
C        0.780744   -2.553457    0.794076 
C        0.986616   -1.686517    1.936821 
C        1.955062   -2.037595   -1.303357 
C        1.975362   -2.547789    0.006998 
C        3.124937    0.010260   -2.010587 
C        3.180882   -1.257402   -1.474799 
C        2.995332    2.000536   -0.796491 
C        3.869359    0.950525   -1.121964 
C        1.611275    2.159770    1.221514 
C        1.406686    1.038571    2.194979 
C        2.864520    2.066626    0.659839 
C        2.373039   -1.198178    1.888576 
C        3.054733   -1.864779    0.792396 
C        3.876023   -1.180527   -0.104251 
C        4.198875    0.191078    0.132201 
C        2.598479    0.174737    2.055993 
C        3.560405    0.843221    1.208028 
