48
0 1
C       -3.521867   -1.642881   -0.828578 
C       -4.009774   -0.637165    0.123061 
C       -3.636976    0.629107   -0.346414 
C       -2.809373   -0.882892   -1.911806 
C       -2.851526    0.481308   -1.612537 
C       -1.489505   -1.491042   -2.071438 
C       -2.536511   -2.401255   -0.179167 
C       -1.332521   -2.455498   -1.016848 
C       -3.251122   -0.855852    1.407702 
C       -2.337388   -1.927565    1.213150 
C       -3.024736    1.399657    0.749883 
C       -2.753227    0.426018    1.846360 
C       -2.092663    2.333744    0.437314 
C       -1.700263    1.332556   -1.843127 
C       -1.566946    2.441580   -0.961509 
C       -0.377117   -0.704302   -2.478119 
C       -0.496762    0.761021   -2.440275 
C        0.878616   -1.314867   -2.268546 
C       -0.072282   -2.697058   -0.441963 
C        1.015561   -2.404715   -1.312724 
C       -1.002896   -1.861490    1.726424 
C        0.110714   -2.506410    1.004725 
C       -1.513427    0.468893    2.461396 
C       -0.689074   -0.723875    2.506996 
C       -0.938754    2.605753    1.333422 
C       -0.596990    1.620181    2.294935 
C       -0.331189    3.123125   -0.868649 
C        0.090939    3.183399    0.583438 
C        0.722206    1.488974   -2.361628 
C        0.771201    2.699185   -1.604264 
C        2.128120   -0.542284   -2.240540 
C        2.032676    0.827763   -2.173040 
C        2.351057   -2.426511   -0.799770 
C        3.084767   -1.240749   -1.389648 
C        1.419675   -2.299805    1.465644 
C        2.565192   -2.450544    0.575543 
C        0.693443   -0.283064    2.660533 
C        0.748718    1.184324    2.416058 
C        1.712703   -1.110796    2.303567 
C        1.459723    2.744216    0.671243 
C        1.953874    2.620296   -0.680682 
C        2.760392    1.547789   -1.085201 
C        1.822084    1.731656    1.620769 
C        3.770550   -0.592216   -0.373002 
C        3.550032   -1.365320    0.884696 
C        2.960529   -0.505092    1.809807 
C        3.420358    0.800414   -0.078892 
C        2.909758    0.872286    1.271698 
