48
0 1
C       -4.109213   -1.116686   -0.400203 
C       -4.213537    0.004710   -1.214030 
C       -4.107148    1.212262   -0.358599 
C       -3.854599   -0.688916    1.020834 
C       -3.852596    0.720354    1.047799 
C       -2.692784   -1.417118    1.483789 
C       -2.919610   -1.919832   -0.803772 
C       -2.149974   -2.210492    0.338483 
C       -3.003424    0.016389   -2.112607 
C       -2.272601   -1.228575   -1.917251 
C       -2.963128    1.917604   -0.744231 
C       -2.283020    1.202838   -1.862115 
C       -2.671914    1.404563    1.539106 
C       -2.119004    2.222752    0.431393 
C       -1.747414   -0.763473    2.262946 
C       -1.740518    0.695028    2.295825 
C       -0.344074   -1.198072    2.281646 
C       -0.741421   -2.396278    0.204395 
C        0.125056   -2.165648    1.363680 
C       -0.872109   -1.222346   -1.968641 
C       -0.167518   -2.126980   -1.078066 
C       -0.862369    1.206412   -1.906088 
C       -0.154420    0.018823   -2.244884 
C       -0.762671    2.396350    0.284532 
C       -0.154136    2.164793   -1.055741 
C       -0.342415    1.108695    2.315742 
C        0.507456   -0.059840    2.548517 
C        0.121816    2.073746    1.411267 
C        1.894853   -0.054682    2.248932 
C        1.525469   -2.254786    1.193480 
C        2.444647   -1.273842    1.738407 
C        1.243238   -2.204178   -1.220758 
C        2.032980   -2.624795   -0.130029 
C        1.304268    0.031101   -2.278681 
C        2.000246   -1.186679   -1.998602 
C        1.198432    2.263046   -1.210650 
C        1.971562    1.255093   -1.983691 
C        1.530644    2.167140    1.247174 
C        2.440078    1.201087    1.770161 
C        2.047364    2.625175   -0.057277 
C        3.320107    1.259123   -1.473368 
C        3.642686    1.208234    0.901845 
C        3.323490    2.119129   -0.244941 
C        3.622254   -1.237326    0.850810 
C        3.359918   -2.054019   -0.275709 
C        3.339860   -1.173604   -1.490910 
C        4.148659    0.033772    0.396473 
C        3.956536    0.049945   -1.146391 
