48
0 1
C        4.054387   -0.822460    0.239822 
C        3.670831    0.250048    1.125254 
C        3.436712    1.433497    0.365555 
C        3.792671   -0.346161   -1.144944 
C        3.399935    1.027135   -1.072658 
C        2.872213   -1.216413   -1.759142 
C        3.131226   -1.919829    0.484180 
C        2.548407   -2.303710   -0.753208 
C        2.588261   -0.214204    2.004812 
C        2.227077   -1.575270    1.582834 
C        1.571055    0.669995    2.343602 
C        2.304899    2.257447    0.620322 
C        1.467182    1.976346    1.711737 
C        2.170185    1.497299   -1.635615 
C        1.637746    2.487598   -0.679108 
C        1.618360   -0.766839   -2.300025 
C        1.237602    0.616563   -2.275124 
C        1.170619   -2.553354   -0.826339 
C        0.602622   -1.723726   -1.907779 
C        0.866282   -1.967279    1.550871 
C        0.394241   -2.644215    0.361627 
C        0.203298    0.185422    2.556306 
C       -0.134608   -1.154414    2.262973 
C        0.051808    2.326940    1.659686 
C       -0.737488    1.256811    2.276264 
C        0.320944    2.823733   -0.725416 
C       -0.459628    2.950315    0.524457 
C       -0.192568    0.939796   -2.282680 
C       -0.559296    2.188967   -1.717768 
C       -0.784850   -1.464543   -1.976182 
C       -1.221451   -0.114670   -2.314530 
C       -1.000058   -2.766050    0.130975 
C       -1.594333   -2.308624   -1.155546 
C       -1.521796   -1.412888    2.086290 
C       -1.916513   -2.482861    1.156898 
C       -2.090156    1.000518    1.915072 
C       -2.510359   -0.366608    1.973413 
C       -1.837732    2.755715    0.208504 
C       -1.904272    2.427722   -1.272634 
C       -2.677812    1.868902    0.901718 
C       -2.583620    0.195976   -2.023395 
C       -2.891159    1.496183   -1.459201 
C       -3.568052    1.264294   -0.115637 
C       -2.971196   -1.995904   -0.910200 
C       -3.205902   -2.133165    0.574685 
C       -3.576039   -0.866660    1.065588 
C       -3.429842   -0.744472   -1.313981 
C       -3.969833   -0.032900   -0.062333 
