48
0 1
C       -4.093836    0.623187    0.185090 
C       -3.549118    0.996147   -1.057021 
C       -3.184673   -0.203236   -1.801709 
C       -3.894755   -0.854073    0.338016 
C       -3.329839   -1.327923   -0.918451 
C       -3.154555   -1.072317    1.488291 
C       -3.268317    1.279903    1.245022 
C       -2.820197    0.274440    2.120044 
C       -2.483616    1.998287   -0.838773 
C       -2.282861    2.129492    0.624007 
C       -1.373313    1.967397   -1.644543 
C       -1.900792   -0.301325   -2.455622 
C       -1.081674    0.810035   -2.519257 
C       -2.088957   -2.091443   -0.946004 
C       -1.263045   -1.559972   -2.019071 
C       -1.920622   -1.841786    1.506346 
C       -1.449655   -2.466649    0.274401 
C       -1.470087    0.229539    2.527258 
C       -0.971406   -1.153404    2.306045 
C       -0.959099    2.207576    1.145426 
C       -0.593325    1.293367    2.206128 
C       -0.089422    2.445973   -1.139654 
C        0.118387    2.642649    0.242817 
C        0.365131    0.664020   -2.597030 
C        0.950231    1.838611   -1.957738 
C        0.143079   -1.712218   -2.034923 
C        0.998482   -0.596684   -2.486115 
C       -0.075405   -2.743645    0.201783 
C        0.662247   -2.573181   -1.023961 
C        0.440330   -1.414235    2.248772 
C        0.860277   -2.421844    1.314814 
C        0.802255    1.035224    2.459114 
C        1.332853   -0.365295    2.522172 
C        1.483039    2.599156    0.689894 
C        1.775767    1.848293    1.919339 
C        2.274527    1.831896   -1.527698 
C        2.545913    2.344917   -0.204557 
C        2.398278   -0.576495   -2.134774 
C        3.031891    0.626012   -1.744780 
C        2.072280   -2.529943   -0.683173 
C        2.169240   -2.406139    0.819724 
C        2.926010   -1.630432   -1.255110 
C        2.698299   -0.345222    2.010020 
C        3.016713    1.040329    1.685926 
C        3.530905    1.401529    0.445339 
C        3.861286    0.375790   -0.501947 
C        3.114740   -1.357577    1.118207 
C        3.726406   -0.958733   -0.152087 
