48
0 1
C        3.414732    0.173994   -1.475741 
C        3.578687   -0.388787   -0.208947 
C        2.906300   -1.709993   -0.184337 
C        2.481377   -0.657877   -2.265215 
C        2.215583   -1.858066   -1.489209 
C        1.414099    0.157775   -2.680690 
C        2.800739    1.513592   -1.351548 
C        1.614877    1.527074   -2.097643 
C        3.251081    0.631877    0.813054 
C        2.778792    1.838128    0.074960 
C        2.599365    0.233367    1.953548 
C        2.264485   -2.100829    0.966517 
C        2.226678   -1.178621    2.114752 
C        0.941017   -2.749997    0.907046 
C        0.933381   -2.375764   -1.528075 
C        0.314463   -2.927309   -0.317434 
C        0.092462   -0.384781   -2.775979 
C       -0.121792   -1.698678   -2.287981 
C       -1.006360    0.540671   -2.706583 
C        0.473729    2.286188   -1.642358 
C       -0.811484    1.878624   -2.059786 
C        1.710162    2.552364    0.552682 
C        0.592326    2.917089   -0.357137 
C        1.467290    1.017071    2.494088 
C        1.106559    2.211848    1.861493 
C        0.955774   -1.241434    2.711375 
C        0.143326   -2.254579    2.040639 
C        0.425359    0.110582    2.929751 
C       -1.202641   -2.042151    1.911441 
C       -1.133800   -2.773378   -0.439303 
C       -1.409901   -2.083044   -1.710134 
C       -1.894363   -2.467368    0.688146 
C       -2.286725    0.078583   -2.404060 
C       -2.511864   -1.239052   -1.833788 
C       -1.995252    2.145213   -1.272283 
C       -2.957099    1.085880   -1.513060 
C       -0.567815    3.071616    0.438529 
C       -0.270001    2.543152    1.808560 
C       -1.847250    2.604183    0.052265 
C       -0.953252    0.368375    2.713482 
C       -1.814318   -0.746736    2.347302 
C       -1.307738    1.648151    2.173179 
C       -2.392432    1.794305    1.171365 
C       -3.055014   -1.618874    0.537694 
C       -3.386876   -1.058049   -0.679932 
C       -3.581850    0.426256   -0.474943 
C       -2.954783   -0.534430    1.578302 
C       -3.240035    0.733837    0.915992 
