48
0 1
C       -4.026103   -0.383601    0.095694 
C       -3.823939    0.586544   -0.980438 
C       -3.147241    1.761102   -0.367303 
C       -3.361571    0.107411    1.247031 
C       -2.826453    1.450461    0.983275 
C       -2.432655   -0.902975    1.780957 
C       -3.283446   -1.609276   -0.307386 
C       -2.517171   -2.037744    0.849471 
C       -2.903282    0.039883   -1.903915 
C       -2.564078   -1.338874   -1.498255 
C       -2.064618    2.137036   -1.255703 
C       -1.797871    0.977695   -2.161289 
C       -1.012568    2.787123   -0.690916 
C       -1.558720    1.837112    1.540842 
C       -0.864570    2.820426    0.778164 
C       -1.199288   -0.533958    2.347009 
C       -0.765529    0.884252    2.322637 
C       -0.171135   -1.545928    2.351535 
C       -1.384665   -2.788448    0.598300 
C       -0.324223   -2.697798    1.552768 
C       -1.214798   -1.801622   -1.668173 
C       -0.761991   -2.759552   -0.740622 
C       -0.503362    0.547747   -2.376375 
C       -0.216528   -0.920847   -2.312033 
C        0.336142    2.639798   -1.264220 
C        0.610638    1.499887   -2.105317 
C        0.508395    3.095687    1.026259 
C        1.256084    3.058547   -0.290596 
C        0.611009    1.145955    2.502225 
C        1.219399    2.313929    1.925082 
C        1.272441   -1.219362    2.345427 
C        1.649451    0.083320    2.430360 
C        0.958685   -2.984035    0.856497 
C        0.671872   -3.005055   -0.552020 
C        1.960407   -2.141734    1.395650 
C        1.101674   -1.338182   -2.328002 
C        1.587148   -2.405209   -1.410609 
C        1.934637    1.059000   -2.118343 
C        2.198398   -0.357229   -2.404428 
C        2.501664    2.371064   -0.086014 
C        2.530011    1.925290    1.295993 
C        2.798390    0.587717    1.625846 
C        2.901708    1.465367   -1.076304 
C        2.964418   -1.666652    0.531090 
C        2.849923   -1.980670   -0.859846 
C        3.276093   -0.790944   -1.623111 
C        3.415399   -0.247653    0.652653 
C        3.611818    0.274994   -0.653547 
