48
0 1
C        3.683436   -1.023879   -0.154107 
C        3.374222   -0.007611   -1.222333 
C        3.247200    1.227138   -0.590845 
C        3.391816   -0.359789    1.153891 
C        3.233189    0.987151    0.915482 
C        2.283391   -1.095505    1.775526 
C        2.799291   -2.078751   -0.296035 
C        2.001686   -2.238034    0.944353 
C        2.267239   -0.497409   -2.013283 
C        2.027718   -1.892032   -1.544514 
C        1.172209    0.337393   -2.345245 
C        2.161584    2.091558   -0.893203 
C        1.194469    1.720582   -1.872945 
C        2.114049    1.731126    1.447756 
C        1.692714    2.657326    0.392530 
C        1.202441   -0.381447    2.395927 
C        1.143769    1.089456    2.255160 
C       -0.000607   -1.104073    2.529471 
C        0.715343   -2.819820    0.878045 
C       -0.219392   -2.377363    1.860276 
C        0.797197   -2.437965   -1.604367 
C        0.189119   -3.150783   -0.437759 
C       -0.144322   -0.313439   -2.586434 
C       -0.291195   -1.721682   -2.295802 
C       -1.330266    0.429746   -2.507766 
C       -0.030213    2.488007   -1.826883 
C       -1.280588    1.847564   -2.226857 
C        0.469807    3.285752    0.464454 
C       -0.327984    3.346557   -0.750580 
C       -0.137677    1.747957    2.311076 
C       -0.404110    2.891956    1.544832 
C       -1.317827   -0.417235    2.580988 
C       -1.394486    0.965148    2.362232 
C       -1.641241   -2.514690    1.607437 
C       -2.295352   -1.229904    1.993377 
C       -1.188168   -3.186786   -0.674261 
C       -1.496364   -2.263570   -1.834186 
C       -2.123824   -2.880464    0.357550 
C       -2.526063   -0.071843   -1.803614 
C       -3.099543   -0.757181    0.874851 
C       -2.614404   -1.424923   -1.457614 
C       -3.029667   -1.765421   -0.135373 
C       -2.319066    2.183433   -1.307536 
C       -1.772635    3.114171   -0.350525 
C       -1.802228    2.777985    0.982735 
C       -2.355008    1.505180    1.448335 
C       -2.963730    0.951954   -0.870695 
C       -3.055930    0.634461    0.526476 
