48
0 1
C       -3.239704   -1.738688   -0.270285 
C       -3.586731   -0.617778    0.476759 
C       -3.586522    0.558810   -0.487348 
C       -2.687398   -1.244236   -1.611965 
C       -2.773477    0.139194   -1.659576 
C       -1.446021   -1.961060   -1.843822 
C       -2.301538   -2.622506    0.264345 
C       -1.328532   -2.946804   -0.821919 
C       -1.522170   -2.262153    1.419400 
C       -2.822517   -0.222070    1.627703 
C       -1.663902   -0.968874    2.018653 
C       -3.292040    1.676893    0.228458 
C       -2.753056    1.233638    1.587252 
C       -2.332429    2.602865   -0.307039 
C       -1.606321    0.939273   -2.039955 
C       -1.516390    2.233907   -1.482094 
C       -0.277942   -1.247429   -2.278727 
C       -0.369338    0.230361   -2.421377 
C        0.958725   -1.858117   -1.971391 
C       -0.081320   -3.238414   -0.212818 
C       -0.190325   -2.846192    1.211532 
C        1.062357   -2.891556   -0.935686 
C        0.900565   -2.285724    1.836766 
C       -0.433229   -0.238280    2.415743 
C        0.779303   -0.937517    2.428766 
C       -1.569334    1.924786    1.815512 
C       -1.433372    2.927594    0.742672 
C       -0.364455    1.236677    2.267276 
C       -0.210628    2.840979   -1.245835 
C       -0.141871    3.227932    0.177059 
C        0.835123    0.951747   -2.417582 
C        0.916768    2.295635   -1.840331 
C        2.210933   -1.078680   -1.904724 
C        2.151511    0.308492   -2.154965 
C        2.271573   -2.663635   -0.182826 
C        2.188733   -2.378923    1.177294 
C        3.022763   -1.553133   -0.847501 
C        2.080100   -0.272290    2.201046 
C        2.930405   -1.107454    1.435110 
C        3.504016   -0.656005    0.184663 
C        0.853316    1.866502    1.994463 
C        0.969925    2.916900    0.932991 
C        2.115181    1.117025    1.954046 
C        2.178100    2.419784   -1.141383 
C        2.954698    1.162091   -1.368554 
C        3.492889    0.723499   -0.090610 
C        2.202022    2.698243    0.224981 
C        2.951557    1.604691    0.915825 
