48
0 1
C        3.587593    0.495332    0.583799 
C        3.224090    1.742827    0.109112 
C        2.711863    1.570786   -1.321409 
C        3.579067   -0.445420   -0.614460 
C        2.791899    0.226314   -1.676439 
C        3.265225   -1.688390   -0.159633 
C        2.848978   -0.152721    1.644469 
C        2.777795   -1.557440    1.283039 
C        1.698498    0.478271    2.213111 
C        2.246202    2.468291    0.816303 
C        1.485301    1.855651    1.858510 
C        1.482119    2.323092   -1.423050 
C        1.287450    3.009208   -0.187271 
C        0.352199    1.754899   -2.098018 
C        1.627151   -0.452713   -2.240770 
C        0.435465    0.351895   -2.545634 
C        2.262740   -2.449522   -0.856744 
C        1.459364   -1.820934   -1.914594 
C        1.596587   -2.286009    1.398579 
C        1.374944   -2.983277    0.117594 
C        0.514665   -0.347419    2.530010 
C        0.447071   -1.732033    2.084202 
C       -0.727481    0.326112    2.733085 
C        0.116141    2.401041    1.743783 
C        0.006634    3.084584    0.428555 
C       -0.944553    1.698009    2.218450 
C       -0.907931    2.297814   -1.707422 
C       -1.100266    2.868047   -0.369990 
C       -2.123217    1.598233   -2.018194 
C       -0.791938   -0.339582   -2.721376 
C       -2.062090    0.320933   -2.529184 
C        0.120181   -2.391053   -1.769290 
C        0.050544   -3.075011   -0.451650 
C       -0.973790   -1.699898   -2.215361 
C       -0.810854   -2.307019    1.731315 
C       -1.023571   -2.889242    0.368360 
C       -1.968644   -0.347081    2.576411 
C       -2.014487   -1.644873    2.060402 
C       -2.258229    1.729836    1.520827 
C       -2.332561    2.292914    0.213440 
C       -3.010902    1.584913   -0.796659 
C       -2.907200    0.508640    1.763937 
C       -2.955778   -0.565121   -1.694094 
C       -2.266366   -1.766802   -1.477003 
C       -2.281062   -2.332848   -0.167867 
C       -2.937871   -1.642196    0.867925 
C       -3.491427    0.234631   -0.608484 
C       -3.459547   -0.305669    0.699375 
