48
0 1
C        4.705809    0.525966    0.529499 
C        4.705827   -0.525759   -0.529536 
C        4.077849   -1.642878   -0.011505 
C        3.826221    0.006526    1.659873 
C        3.498542   -1.322671    1.356013 
C        2.722779    0.943897    1.858129 
C        4.077699    1.642989    0.011471 
C        2.910323    2.000588    0.857324 
C        3.826132   -0.006434   -1.659831 
C        3.498385    1.322737   -1.355971 
C        2.910464   -2.000643   -0.857326 
C        2.722869   -0.943840   -1.858161 
C        2.121854   -1.739254    1.358773 
C        1.831825   -2.275240   -0.012056 
C        1.398468    0.482760    2.080485 
C        1.106830   -0.935200    1.914964 
C        0.282307    1.314416    1.651521 
C        1.831710    2.275212    0.012039 
C        2.121859    1.739267   -1.358794 
C        0.520478    2.105491    0.504385 
C        1.398517   -0.482760   -2.080477 
C        1.106825    0.935027   -1.914917 
C        0.520473   -2.105548   -0.504355 
C        0.282274   -1.314543   -1.651542 
C       -0.282292   -1.314599    1.651512 
C       -0.520457   -2.105597    0.504296 
C       -1.106803    0.934977    1.914958 
C       -1.398448   -0.482888    2.080498 
C       -2.121847    1.739181    1.358863 
C       -0.520504    2.105431   -0.504301 
C       -0.282311    1.314503   -1.651521 
C       -1.831715    2.275225   -0.011956 
C       -1.106815   -0.935156   -1.915055 
C       -1.398512    0.482865   -2.080511 
C       -1.831772   -2.275202    0.011964 
C       -2.121849   -1.739225   -1.358877 
C       -2.722825   -0.943919    1.858136 
C       -2.910436   -2.000634    0.857291 
C       -3.498433    1.322665    1.356027 
C       -3.826151   -0.006493    1.659842 
C       -2.910364    2.000625   -0.857235 
C       -2.722782    0.943975   -1.858110 
C       -4.077726    1.642957   -0.011407 
C       -3.498533   -1.322630   -1.356044 
C       -4.077820   -1.642870    0.011475 
C       -4.705830   -0.525808    0.529534 
C       -3.826266    0.006569   -1.659893 
C       -4.705831    0.525942   -0.529491 
