48
0 1
C       -3.887904   -1.181119    0.423208 
C       -3.932597   -0.702799   -0.873986 
C       -3.654495    0.760958   -0.859435 
C       -3.498682   -0.059210    1.345646 
C       -3.462566    1.153211    0.533934 
C       -2.352189   -0.447859    2.061725 
C       -2.808671   -2.199390    0.518876 
C       -1.996966   -1.835739    1.622302 
C       -2.822762   -1.339358   -1.655838 
C       -2.177561   -2.315447   -0.782931 
C       -2.614236    0.999337   -1.795161 
C       -2.041764   -0.320070   -2.224279 
C       -1.718972    2.052380   -1.547294 
C       -2.450463    2.071999    0.820545 
C       -1.788055    2.703076   -0.291906 
C       -1.264040    0.473257    2.335357 
C       -1.406911    1.769228    1.817436 
C        0.100489   -0.059715    2.571309 
C       -0.655414   -2.193088    1.577734 
C        0.377679   -1.407161    2.265654 
C       -0.774089   -2.458732   -0.863850 
C       -0.084218   -2.696461    0.366683 
C       -0.619148   -0.475216   -2.358722 
C       -0.032561   -1.676784   -1.850264 
C       -0.294856    1.941701   -1.924158 
C        0.216734    0.735236   -2.432529 
C       -0.403711    3.041976    0.110139 
C       -0.197797    2.533749    1.414209 
C        0.498647    2.684993   -0.945122 
C        1.235850    0.820359    2.480053 
C        1.082648    2.090329    1.727097 
C        2.524229    0.336323    2.209407 
C        1.659253   -1.850038    1.729809 
C        1.369615   -2.574456    0.481626 
C        2.781460   -1.019924    1.791552 
C        1.402604   -1.785906   -1.830341 
C        2.125475   -2.357842   -0.652012 
C        1.632963    0.591298   -2.380323 
C        2.193673   -0.755796   -2.364086 
C        1.837066    2.320129   -0.629453 
C        2.152195    2.198109    0.771461 
C        3.176568    1.240745    1.187098 
C        2.473169    1.423007   -1.550107 
C        3.698064   -0.982599    0.657480 
C        3.397877   -1.659268   -0.522073 
C        3.476428   -0.689327   -1.657767 
C        3.902178    0.490712    0.299517 
C        3.625763    0.611192   -1.128218 
