48
0 1
C        3.821844   -0.036979   -0.135847 
C        3.428497    0.323596    1.163749 
C        2.836101    1.689977    1.104655 
C        3.237537    0.982856   -1.083728 
C        2.754071    2.082957   -0.282180 
C        2.381447    0.327248   -1.993451 
C        3.478350   -1.318363   -0.632817 
C        2.580041   -1.113322   -1.850724 
C        2.830174   -2.218370    0.206628 
C        2.520379   -0.504071    1.935157 
C        2.263643   -1.801873    1.482214 
C        1.680434    1.711502    1.929807 
C        1.391344    0.330889    2.384890 
C        0.619454    2.545668    1.558475 
C        1.587521    2.720209   -0.715969 
C        0.683461    3.185887    0.284496 
C        1.044973    0.826077   -2.265832 
C        0.768393    2.120020   -1.797440 
C       -0.071235   -0.140022   -2.442722 
C        1.509877   -1.985546   -1.784712 
C        1.708476   -2.826057   -0.574981 
C        0.152021   -1.556471   -2.111593 
C        0.894663   -2.301943    1.559594 
C        0.655403   -3.043881    0.276846 
C        0.071235   -0.140022    2.442721 
C       -0.152022   -1.556470    2.111594 
C       -0.768392    2.120022    1.797440 
C       -1.044972    0.826078    2.265832 
C       -0.683459    3.185887   -0.284497 
C       -0.619453    2.545667   -1.558476 
C       -1.587519    2.720209    0.715968 
C       -1.391344    0.330888   -2.384890 
C       -1.680434    1.711502   -1.929807 
C       -2.520379   -0.504071   -1.935156 
C       -0.894665   -2.301943   -1.559594 
C       -0.655406   -3.043881   -0.276845 
C       -2.263644   -1.801872   -1.482213 
C       -1.509878   -1.985544    1.784712 
C       -1.708479   -2.826056    0.574982 
C       -2.830175   -2.218368   -0.206627 
C       -2.381446    0.327250    1.993452 
C       -2.580041   -1.113320    1.850725 
C       -3.478350   -1.318361    0.632818 
C       -2.754070    2.082958    0.282179 
C       -2.836100    1.689977   -1.104656 
C       -3.428497    0.323597   -1.163749 
C       -3.237536    0.982859    1.083728 
C       -3.821844   -0.036977    0.135847 
