48
0 1
C        3.652228    0.121526   -1.367070 
C        3.485880   -1.228643   -0.769283 
C        3.484331   -1.079118    0.622029 
C        3.661230    1.105908   -0.245956 
C        3.549711    0.389461    0.945968 
C        2.640218    2.097564   -0.551454 
C        2.531251    0.387862   -2.160303 
C        1.914964    1.656463   -1.745208 
C        2.329256   -1.841700   -1.413533 
C        1.676842   -0.807436   -2.274925 
C        1.520627   -2.652836   -0.655497 
C        2.429293   -1.648128    1.425810 
C        1.627637   -2.628853    0.824086 
C        2.484324    0.658988    1.903054 
C        1.780113   -0.605318    2.216033 
C        1.885293    2.606512    0.514113 
C        1.746718    1.811293    1.760643 
C        0.598776    3.109384    0.203127 
C        0.526113    1.813365   -1.874042 
C       -0.090385    2.750956   -0.982985 
C        0.303845   -0.684765   -2.356825 
C       -0.303905    0.684509   -2.356891 
C        0.090360   -2.751062   -0.982691 
C       -0.526159   -1.813567   -1.873832 
C        0.321432   -2.804243    1.343266 
C       -0.598771   -3.109362    0.203479 
C        0.386387   -0.628291    2.490495 
C       -0.318508   -1.830980    2.147893 
C        0.318562    1.831213    2.147688 
C       -0.321399    2.804389    1.342972 
C       -0.386324    0.628561    2.490438 
C       -1.520645    2.652764   -0.655745 
C       -1.627617    2.628943    0.823843 
C       -1.676900    0.807189   -2.274969 
C       -2.329292    1.841546   -1.413673 
C       -1.915008   -1.656653   -1.744979 
C       -2.531305   -0.388097   -2.160197 
C       -1.885279   -2.606457    0.514443 
C       -1.746673   -1.811102    1.760883 
C       -2.640231   -2.097625   -0.551160 
C       -1.780057    0.605558    2.216012 
C       -2.429257    1.648283    1.425693 
C       -2.484275   -0.658782    1.903187 
C       -3.485899    1.228560   -0.769328 
C       -3.652262   -0.121674   -1.366965 
C       -3.661236   -1.105934   -0.245744 
C       -3.484315    1.079186    0.622000 
C       -3.549687   -0.389358    0.946100 
