48
0 1
C        4.148385    1.213324   -0.369096 
C        4.481689   -0.224013   -0.305333 
C        4.128509   -0.696827    0.957555 
C        3.481953    1.552720    0.948299 
C        3.416744    0.394187    1.726933 
C        2.215849    2.179410    0.634736 
C        3.154349    1.366868   -1.349274 
C        2.040547    2.133694   -0.805364 
C        3.581069   -0.910189   -1.307080 
C        2.756349    0.058560   -1.931081 
C        3.152541   -1.802614    0.833172 
C        2.919161   -2.001378   -0.595633 
C        2.127132   -0.133676    2.167278 
C        2.039789   -1.527943    1.663400 
C        1.061634    1.922079    1.439744 
C        0.958752    0.645843    2.146330 
C       -0.117693    2.451552    0.913525 
C        0.751105    2.033877   -1.351749 
C       -0.220461    2.649182   -0.519197 
C        1.350788   -0.184956   -2.220720 
C        0.321128    0.871089   -2.131951 
C        1.627391   -2.301592   -0.974439 
C        0.892558   -1.484017   -1.962555 
C        0.751022   -2.025893    1.316696 
C        0.644748   -2.619380    0.042883 
C       -0.378540    0.011549    2.189934 
C       -0.440469   -1.368411    1.858224 
C       -1.449296    2.091667    1.409121 
C       -1.603897    0.820037    2.062159 
C       -1.583504    2.578067   -0.876696 
C       -2.374143    2.506426    0.407302 
C       -1.081387    0.570147   -2.202368 
C       -2.039645    1.569238   -1.743738 
C       -0.526457   -1.764379   -1.803894 
C       -0.650258   -2.607048   -0.624290 
C       -1.543668   -0.826186   -2.086170 
C       -1.706062   -1.941487    1.487361 
C       -1.792466   -2.585705    0.131561 
C       -2.880001    0.187824    1.904277 
C       -2.902167   -1.259506    1.710094 
C       -3.540814    1.785346    0.144235 
C       -3.387448    1.206494   -1.281072 
C       -3.894321    0.739116    1.003394 
C       -2.856143   -1.156943   -1.569300 
C       -2.974586   -2.111413   -0.512844 
C       -3.838664   -1.547497    0.565858 
C       -3.832271   -0.086528   -1.261146 
C       -4.388832   -0.370714    0.120919 
