30

 C     2.622072669     -0.6798634347     0.0000222715
C     2.6220498368     0.6799515701     -0.0000448127
C     1.9023584781     1.1665789969     -1.2000466545
C     1.902397655     -1.1666333796     -1.1999315886
C     1.3793537184     -0.0000714571     -1.9188952518
C     1.0607663827     -2.1892854413     -0.7636520484
C     1.9024079883     -1.1665150321     1.20003032
C     1.0607728861     -2.1892099586     0.7638588025
C     1.9023687982     1.1666973285     1.1999152391
C     1.3793702395     0.0001178619     1.9188834251
C     1.0606927872     2.1892456384     -0.7638678757
C     1.0606994355     2.1893211068     0.7636429487
C     -0.3047932322     2.2382561235     -1.179404455
C     -0.0257615102     -0.0001118743     -2.258990795
C     -0.8436893586     1.1418240165     -1.897998713
C     -0.3047178591     -2.2383826037     -1.1791840357
C     -0.8436506539     -1.1420392564     -1.8978871393
C     -0.304707925     -2.2382662961     1.1794071551
C     -1.1375826902     -2.3551319688     0.000120614
C     -0.0257420573     0.0001110962     2.2589911374
C     -0.8436346808     -1.1418522725     1.8980060844
C     -0.3047828468     2.238372388     1.1791866873
C     -1.1376617386     2.3550937966     -0.0001107542
C     -0.8436726482     1.1420110069     1.8978944731
C     -2.1199600719     0.6944468194     -1.2403373224
C     -2.1199364359     -0.6946399045     -1.2402689302
C     -2.2275475797     -1.4263130995     0.0000796254
C     -2.119926083     -0.6945179281     1.2403556833
C     -2.2275954367     1.4262383575     -0.0000603608
C     -2.1199490666     0.6945688004     1.2402872704


