90

 C     2.7128952531     -3.6569569713     -0.3630392368
C     3.6424110033     -2.8507857087     0.3668047211
C     0.2577228293     -4.1652704844     -1.7732567525
C     1.2882923994     -3.5212558876     -2.4032619192
C     2.5575586056     -3.3316869643     -1.737498787
C     -1.0897555538     -3.7574367808     -2.0359716168
C     3.1573889772     -2.1620407439     -2.3016016372
C     4.0543054604     -1.3586084366     -1.5585686001
C     4.3113091183     -1.7449649549     -0.2112602102
C     4.106177195     0.0249206537     -1.8882219636
C     2.1872843239     -1.5534830449     -3.1921442235
C     0.8041097015     0.4515386062     -3.5659863865
C     2.1076549363     -0.1649948417     -3.3581737371
C     3.1820026505     0.5951515026     -2.7939856512
C     -0.5691870978     2.4428434438     -3.2499890581
C     0.7090158765     1.88721649     -3.3443069994
C     -3.5128540344     -2.4720074431     -1.4750824695
C     -2.6695867899     -1.9209805968     -2.4829280014
C     -1.3965031345     -2.5755695615     -2.7638189269
C     -0.2816479733     -1.8177697002     -3.3325719727
C     1.0112421853     -2.3715092166     -3.2224793176
C     -2.837022219     -0.519136259     -2.8240527351
C     -1.6960893273     0.2364082625     -3.3675615747
C     -0.3932766273     -0.375035848     -3.5505733055
C     -1.7436882475     1.6454767168     -3.2879991536
C     4.4179098149     1.0367646373     -0.8869738091
C     4.529980861     0.675897425     0.4815632345
C     4.475414087     -0.7087184722     0.8148491859
C     4.0332678849     1.5942280059     1.4595315537
C     3.7872428098     2.2588987308     -1.2635502369
C     2.1803191167     3.9781906921     -0.6509123381
C     3.3061310962     3.1801712017     -0.2838424
C     3.4615696793     2.841310428     1.0854858196
C     1.8119694562     2.6412917155     -2.7152895925
C     3.010106354     1.9847413107     -2.4443087496
C     1.5086213096     3.7716569029     -1.8760736586
C     3.2974569766     1.1112943767     2.6026161242
C     3.0908468412     -0.2478290405     2.8286426586
C     3.8424597314     -1.1528653935     2.0005697042
C     3.3727590044     -2.4903516839     1.7508071861
C     2.2372268766     -2.9308220585     2.3690654831
C     2.2821898388     2.0824336826     2.9343998026
C     -0.0398556764     2.5909268231     3.2584438115
C     1.0112196156     1.684262121     3.4585401757
C     0.7230426129     0.2552276419     3.6409681274
C     1.7962281312     -0.6862630978     3.396952104
C     1.4540118119     -2.03607966     3.2181038146
C     1.1941607595     4.4323021398     0.3399177851
C     1.2857638098     3.9677135436     1.6790177993
C     2.4127631655     3.1736443335     2.0451333215
C     0.0737881301     3.714418455     2.3621953227
C     0.3887304181     -4.5496456922     -0.3744117068
C     1.5600629791     -4.2267739279     0.350670686
C     1.3460148669     -3.8544779955     1.7158828655
C     0.0445533791     -3.6139124632     2.234082255
C     -1.1238727062     -3.8857394067     1.498434582
C     -0.914108835     -4.4407233479     0.2021665876
C     -3.0072293995     -3.4748706391     -0.5706548671
C     -1.8387390602     -4.1105293946     -0.8585142607
C     -3.2671008855     -1.007193758     2.6627571466
C     -2.2582481592     -1.9827161068     2.7257535721
C     -2.3272283448     -3.1085521823     1.7882488126
C     -3.3344537754     -3.0844400884     0.7927103143
C     -1.3986754157     2.1402561832     3.2386272074
C     -1.7191906748     0.7813568762     3.4544833905
C     -0.6528083044     -0.1996408042     3.6175015572
C     -0.9659367399     -1.5863851234     3.3054355378
C     0.1076246255     -2.4694865382     3.1419594318
C     -2.9834796293     0.3769080115     2.9819033266
C     -4.5555648445     0.3534897027     1.280550539
C     -4.287059626     -1.0191119601     1.6543745074
C     -4.2770181496     -2.019225687     0.6929188459
C     -4.7400596449     0.6911634258     -0.050612816
C     -2.1302755529     2.9525217436     2.3226699524
C     -3.2529098205     2.4534522324     1.6333530563
C     -3.765186624     1.2174126597     2.1182088219
C     -0.0668045672     4.5605292955     -0.2979311309
C     -2.4043536768     3.6482666127     -0.4255113558
C     -1.3013475721     4.2241539447     0.3548166205
C     -1.1996118135     3.8787104379     1.7211172742
C     -4.170650077     1.912963478     -0.5745144274
C     -3.4229627709     2.8152029183     0.2237772769
C     -3.7664638139     1.6146889546     -1.9238356716
C     -2.7527580609     2.327589895     -2.4992572041
C     -2.1621678021     3.4248948536     -1.8059190626
C     -0.8505972315     3.5907131128     -2.3828133379
C     0.1466666362     4.1975276784     -1.6839064917
C     -4.4151457928     -1.6596365328     -0.711070938
C     -4.6127033173     -0.3425307331     -1.0696295066
C     -3.8806938263     0.2012833726     -2.1802741044


