90

 C     -2.2028690577     3.4708484604     -1.5053095836
C     -2.8856948941     2.383533759     -2.0795416808
C     -3.9729126551     1.8513515417     -1.3271123555
C     -4.4372140031     0.5128049422     -1.5376937563
C     -3.8271998506     -0.2836585513     -2.4873281778
C     -0.8608775448     3.7863540642     -1.8758152879
C     1.27950561     3.0471301246     -2.687246708
C     -0.1213070742     2.9493350876     -2.7621952155
C     -0.7455209287     1.7214201784     -3.2815358189
C     -2.1484687805     1.5043659125     -3.0091007698
C     -2.6711053972     0.2059958374     -3.2088922107
C     -4.5856275109     -1.3944148585     0.0113435379
C     -4.0265455348     -2.2545737175     -1.0292024123
C     -4.7961135108     -0.0522348106     -0.2451960129
C     -3.6351039432     -1.6968782863     -2.2429599218
C     -2.3834163646     -2.0866432671     -2.8176088506
C     -3.2135463666     -3.2580352556     -0.4183861844
C     -1.9982827741     -3.6990078876     -0.993750346
C     -1.5649094335     -3.0749561123     -2.2458562881
C     1.778830805     -1.721882198     -3.3584276447
C     0.3942353619     -1.9146113783     -3.36541928
C     -0.1551908285     -3.0530275642     -2.616016477
C     0.7330946656     -3.8427967019     -1.8629860072
C     2.1182372241     1.9650649623     -3.100783488
C     1.5553031815     0.7466968798     -3.5728363976
C     0.103078843     0.6016874308     -3.6422424396
C     -0.4379446513     -0.7436216382     -3.6360646074
C     -1.8138790326     -0.9028096201     -3.4518469695
C     2.355968691     -0.4037512533     -3.451115296
C     -2.2892573436     -3.4082017445     1.8478114024
C     -4.0218396569     -1.8056063171     1.2675151377
C     -3.3041758633     -3.0329962339     1.0149171543
C     -1.1525900387     -4.1155454447     1.3157232367
C     0.3406504828     -4.3640084591     -0.5631451726
C     -0.9860467174     -4.2558043483     -0.0952612833
C     -1.8364418443     -2.5171119494     2.882102119
C     -2.3592355759     -1.2131452939     3.015399191
C     -3.5510032398     -0.8621156761     2.2213113159
C     -3.8638171665     0.5380264102     1.9802340028
C     -4.491612741     0.9228645339     0.7572455237
C     -3.0626058353     1.5181615007     2.6165116767
C     -0.4512507361     -2.7898895624     3.0784081245
C     1.8198131612     -2.0043719326     3.1744055484
C     0.4598586662     -1.7757022906     3.4803061214
C     -0.0160625054     -0.4200958005     3.6594177088
C     -1.4563735793     -0.1756902183     3.4975663059
C     -1.8860864218     1.1531560811     3.3555773781
C     1.4703993499     -4.2680776675     0.3117197708
C     1.2825216703     -3.9184494249     1.6801357672
C     -0.0442419248     -3.8406427975     2.1673297328
C     2.2413763033     -3.0624595495     2.266509014
C     -2.8124945058     2.7980928173     2.0298426465
C     -3.2580006704     3.0908679747     0.7085455056
C     -4.0930318551     2.1366466662     0.0819823702
C     -2.4004508336     3.860617967     -0.1303988725
C     -1.530626441     3.274375519     2.4859982978
C     0.6994726352     3.9777465574     1.8630191896
C     -0.7107029495     4.0842603111     1.6608118067
C     -1.1693357583     4.3972764854     0.3455980848
C     2.7348737641     -0.927801498     3.0659126198
C     2.3184688181     0.4045030716     3.1984724546
C     0.9305787106     0.6734705693     3.5589057504
C     0.4290301535     2.0269967955     3.3693463223
C     -0.9571900694     2.2501759118     3.310037867
C     1.2502153654     3.0083721702     2.7335687588
C     1.6490048172     4.1901995952     0.7774615593
C     1.1742724738     4.3242927846     -0.5536148769
C     -0.2332270026     4.4147761652     -0.7542539082
C     1.9394180726     3.7347478272     -1.6043385288
C     2.8187683507     3.4261751679     1.051157121
C     4.3082762644     1.6611077492     0.3063522375
C     3.6053962211     2.855110531     -0.0005635478
C     3.1597492661     3.0485997219     -1.3400097195
C     3.749587882     -1.3337997623     2.0955904052
C     4.3865554612     -0.3950600435     1.329550916
C     4.1356175127     1.002795413     1.5571519859
C     3.1306658907     1.4242666258     2.483243559
C     2.5736822187     2.6848046968     2.2613820397
C     2.5864870765     -3.7420670726     -0.4361424528
C     3.5432570428     -2.8710875361     0.1367899457
C     3.3784535672     -2.6040384599     1.5430712452
C     3.710386356     -1.6926496823     -2.0452576902
C     2.6558942168     -2.5255688049     -2.5539440894
C     2.1287785175     -3.550418072     -1.7948354947
C     4.6307247881     -0.6313092055     -0.0798705212
C     4.1559939488     -1.8283087625     -0.7030830005
C     3.3049284583     1.9867303321     -2.314955312
C     4.5632186494     0.6385776412     -0.709893875
C     4.0000067739     0.7851529184     -2.0127583452
C     3.5661741242     -0.3982409812     -2.6609555803


