90

 C     -3.828807205     -2.5286517449     -0.0021662927
C     -4.3195430263     -1.4985896184     0.8635685059
C     -1.9024702672     -3.7271896689     -1.7671860989
C     -2.7454351396     -2.7559039603     -2.2348966393
C     -3.7828382836     -2.2080486895     -1.3843146281
C     -0.5454546195     -3.7513442255     -2.219151394
C     -4.0548501044     -0.887502574     -1.8555288793
C     -4.5087702023     0.1353691411     -0.9810993649
C     -4.6527069833     -0.2066592938     0.3953397415
C     -4.1663767513     1.4735313036     -1.3173277378
C     -3.0986626973     -0.5876862444     -2.9022742757
C     -2.642192627     0.7099340687     -3.1342598046
C     -3.3223666885     1.7541555217     -2.4170392015
C     -1.4065448756     3.2105654587     -2.6341294219
C     -2.6468947972     2.990701054     -2.1223068961
C     2.2062908223     -3.322707359     -1.997464145
C     1.4556489865     -2.4445411368     -2.8309019408
C     0.0239629619     -2.672281316     -2.954075028
C     -0.8516284394     -1.5852968041     -3.3630531293
C     -2.2365663155     -1.7200251136     -3.0906069236
C     1.1066035014     -0.0036488356     -3.4402037938
C     -0.3185876642     -0.2387965476     -3.5822019949
C     -1.2470126773     0.8829707822     -3.5441240236
C     -0.71403826     2.1828571965     -3.4026133412
C     -3.9045824323     2.47777012     -0.2808571822
C     -3.9066482433     2.0983265173     1.0901105353
C     -4.2988984224     0.7747037469     1.429753703
C     -2.9565607867     2.7310733987     1.9370523724
C     -2.0092573615     3.6779146249     1.4300563177
C     -1.9339228018     3.9826863769     0.055429241
C     -2.9578461816     3.4134390076     -0.774530324
C     -2.3033972108     1.9886024531     2.9827412515
C     -2.568971736     0.6345348087     3.2136676264
C     -3.6916013301     0.0836961043     2.5068232688
C     -3.7502382288     -1.3213128411     2.1916687352
C     -2.7613584268     -2.1520982827     2.6338084315
C     -0.9805940502     2.521693687     3.1616883862
C     1.3790965789     2.2119809607     3.2600081594
C     0.1065687947     1.6993013373     3.5588522723
C     -0.0958138406     0.2555472498     3.7031055945
C     -1.450310033     -0.2467214636     3.5991344087
C     -1.6168473181     -1.6243922861     3.3655176708
C     0.4629857793     3.9455909999     1.7365992659
C     -0.8080305341     3.5896576711     2.2373253149
C     1.5643006434     3.3413572237     2.395005397
C     0.5796113289     4.3359136422     0.3304473374
C     -0.4259746422     3.9768995666     -1.891798132
C     -0.6129069696     4.2899898826     -0.5237722816
C     1.8489748621     4.1596636766     -0.2720029843
C     -1.9598178003     -4.1340019658     -0.3691821605
C     -2.8449269892     -3.4862122257     0.5276742025
C     -2.3341569538     -3.2848775448     1.8463904548
C     -0.9712482896     -3.5219159     2.1695389468
C     -0.0733850861     -4.118129058     1.2637014678
C     -0.6305737289     -4.4915422487     0.0061660202
C     1.5358131855     -4.1926143051     -1.0608802628
C     0.1980992727     -4.4038839309     -1.1777855011
C     3.0600768616     -2.2130991653     2.1635837672
C     1.7925788233     -2.7886211122     2.344524149
C     1.3489560499     -3.8026572368     1.3819518958
C     2.1606310914     -4.0367985957     0.2446163412
C     2.5080185036     1.333138357     3.1107025198
C     2.3472642591     -0.0672156656     3.225681484
C     1.0281413959     -0.6350632205     3.4923022795
C     0.8016737594     -2.0209068444     3.1130193699
C     -0.5215063111     -2.4782863907     3.0911594656
C     3.328530892     -0.849807857     2.5741782969
C     4.5579521964     -1.2664241854     0.6500771274
C     3.8707082478     -2.4869663287     1.0109625509
C     3.3825234341     -3.3363744018     0.0291481576
C     4.6390527934     -0.8906729444     -0.6846650938
C     3.4281887281     1.9187542279     2.1893089473
C     4.2193875996     1.1125448957     1.3337990396
C     4.2634480367     -0.2685184459     1.6552532307
C     3.7054630225     2.7045118583     -0.5016629308
C     2.96893275     3.5511306384     0.4222101772
C     2.8303231145     3.1535338745     1.7340491565
C     4.4730725946     0.4921878468     -1.0505649254
C     4.3488040632     1.5130358618     -0.0717594339
C     0.8450149846     3.5871756674     -2.4088751428
C     3.6839028143     0.5225009362     -2.2490098531
C     2.8705681257     1.6145219195     -2.5753226189
C     3.0339720068     2.7701992559     -1.7580035987
C     1.965760552     3.7304777432     -1.6362978199
C     3.4230231151     -2.9131598388     -1.3650015538
C     3.9856288056     -1.7005169107     -1.6968924215
C     3.2918756733     -0.8203897279     -2.600105428
C     2.0003732536     -1.1183164606     -3.1024246942
C     1.6006937489     1.3532735193     -3.2552095081
C     0.6683853187     2.4100063328     -3.259723779


