90

 C     -1.2095705588     1.3018340675     -3.8427544492
C     -1.9815274904     0.1305659446     -3.7194649544
C     -3.2593461669     0.2911374696     -3.0980395021
C     -3.8751045777     -0.7984557219     -2.3852649786
C     -3.2797392489     -2.0313378052     -2.3842835411
C     0.2115315925     1.2328461197     -3.9476492621
C     2.279227326     0.0933130203     -3.59174665
C     0.9073900623     -0.000314085     -3.9046783279
C     0.1843171811     -1.2293904683     -3.637511267
C     -1.2815447989     -1.1624726778     -3.6194985211
C     -1.9968889557     -2.2252489067     -3.029876452
C     -3.3296246311     -2.8406996906     1.2211585962
C     -3.9335427257     -2.376082565     0.0116542296
C     -3.3306893819     -2.8528684654     -1.1936287178
C     -2.1551986981     -3.6605729126     -1.1913241116
C     -0.1537217683     -4.2866438781     0.0196000631
C     -1.5546425942     -4.0772883076     0.0191713863
C     -2.1541212282     -3.6483977101     1.2259406406
C     0.094241692     -3.3068455481     -2.2588457443
C     -1.3212837736     -3.2455782776     -2.3051780603
C     3.9257707851     -2.2963469898     -0.7038478092
C     2.8360355468     -2.8568355333     -1.4441712859
C     1.9910861394     -3.686213983     -0.6947042657
C     0.6406540941     -3.9586057317     -1.1251539444
C     0.8826853262     -2.3041448047     -2.966460318
C     2.9814383604     -1.0000860487     -3.0138784484
C     2.2973517535     -2.168147242     -2.6175121198
C     -4.5567710637     -1.0491356472     0.0052392034
C     -4.5553602172     -0.2955438988     -1.2041786089
C     -3.2776238841     -2.0072168515     2.4034044959
C     -3.8729928632     -0.774365279     2.3924841765
C     -4.5542907794     -0.2833877338     1.206983651
C     -1.2061738862     1.3404755566     3.8263192456
C     -3.2566212334     0.3223410592     3.0936762983
C     -1.9782431853     0.1680393687     3.7155315714
C     0.6416564148     -3.9470979754     1.1602533919
C     0.0962449182     -3.2839546032     2.2878277421
C     -1.3192235907     -3.2222272553     2.3348126057
C     -1.9941998539     -2.1946142116     3.0497759878
C     0.1875458066     -1.1926994856     3.6453801248
C     -1.2783382588     -1.1259568141     3.62799614
C     -4.3877424727     1.1281138697     1.2035034256
C     -4.2639055665     1.8674077563     -0.0096064895
C     -4.3888008504     1.1159078218     -1.2150823644
C     -3.4286366538     3.0310736709     -0.0158538621
C     -3.6039564926     1.5064504492     2.3831174356
C     -1.551999006     2.5476856416     3.126773339
C     -2.7250392425     2.6179893728     2.3352233749
C     -2.6564426403     3.3844334687     1.1362490054
C     -2.6574615068     3.3728033398     -1.1721448022
C     -2.7271070481     2.5943104074     -2.363267873
C     -3.6060576355     1.4823364649     -2.3991667434
C     -1.5547790613     2.5160288041     -3.1551126978
C     -1.3997566951     3.9194730654     -0.7330534987
C     1.0840760292     3.6267218048     -0.7409004388
C     -0.1991827229     3.7321102134     -1.4617683939
C     -0.3292343132     3.1427724846     -2.7440995011
C     3.3950034159     2.7620863672     -0.7318661526
C     2.2359376999     3.0945404888     -1.4578421528
C     -0.3268347267     3.1702354315     2.7083802267
C     -0.1979124582     3.7466252468     1.4200655626
C     -1.3991259676     3.9266416868     0.6905571418
C     2.2372067737     3.1090336142     1.4204164989
C     1.0847113744     3.6339718655     0.69916649
C     3.3956329797     2.7692792325     0.6968042216
C     2.0384670125     2.4083755266     -2.7372583906
C     0.7496086849     2.3892947489     -3.3037327748
C     2.8651554791     1.319458442     -3.0876481052
C     4.0158390489     1.000203144     2.2879440519
C     4.3192258474     1.7347744088     1.1495565909
C     4.8575839455     1.0676413216     -0.0096241315
C     4.3181993958     1.7230682152     -1.1749904437
C     4.0138097265     0.9770725661     -2.3056538838
C     0.7525206059     2.4224216455     3.274631849
C     2.8678752873     1.3504514297     3.0674680616
C     2.0408702114     2.4357933648     2.7068560306
C     2.299675196     -2.14169616     2.6330080461
C     0.8853169303     -2.2741684483     2.9845811513
C     2.9841019064     -0.9697143422     3.016966623
C     2.2824036688     0.129462116     3.584428381
C     0.9108525218     0.0390005358     3.8995012199
C     0.2150205945     1.2725385326     3.9306494883
C     4.6069356283     -1.0829569627     1.1570872297
C     3.926400479     -2.2891797376     0.7192721394
C     2.8373206667     -2.8421708029     1.4661727775
C     1.9917108182     -3.6790459517     0.72585918
C     4.1287801225     -0.4414118579     2.2803548497
C     4.1267652884     -0.4643957833     -2.2836480352
C     5.0203052317     -0.327958335     -0.0026687118
C     4.6059109052     -1.0945956822     -1.1543931553


