90

 C     -3.8801946339     -2.4951943056     -1.1498013916
C     -2.8345379921     -3.1777919637     -1.8896662293
C     -3.9879826493     -2.6624233395     0.2223382254
C     -2.019084302     -4.09209964     -1.2557476137
C     -0.6409584417     -4.1648602968     -1.6151660899
C     -4.0379458399     1.1971148298     -1.4399985478
C     -4.369622748     -0.0604121598     -0.8936310241
C     -4.0355742631     -1.1823394086     -1.7050406169
C     -3.0837498428     -1.0578408394     -2.7752749709
C     -2.5798588037     0.1802693024     -3.1705891055
C     -3.2347680915     1.3168719472     -2.6064570598
C     -1.3232238624     2.7195682537     -3.0743229851
C     -2.5756970476     2.5903236265     -2.5406685685
C     -0.8660818544     -2.1715027428     -3.0568484858
C     -2.2616538027     -2.2449882427     -2.8211925367
C     3.2943001613     -1.4048397094     -2.3478290223
C     1.9911231664     -1.7310436344     -2.7902495349
C     1.1339956919     -0.6456157671     -3.2676706934
C     -0.2871965893     -0.870717457     -3.4282990918
C     -1.1791412831     0.2642464732     -3.5755564755
C     1.653749956     0.7167260752     -3.211484765
C     0.7551013915     1.7779159619     -3.3990419718
C     -0.6201940228     1.5597946785     -3.6059976801
C     -0.0274005504     -3.2083724966     -2.474977707
C     2.1163281879     -3.7445106563     -1.3695621363
C     1.4070128703     -2.9902638765     -2.3452368091
C     -4.4263763432     -0.2124195847     0.5631990491
C     -4.2488874705     -1.5215423379     1.0739291725
C     -3.7975720782     2.365264599     -0.6003474074
C     -3.7717829266     2.2352899193     0.8103737151
C     -4.0620167203     0.9274910823     1.4119533016
C     -2.9206605396     3.1568405461     1.4893875948
C     -2.0585906499     4.057655896     0.7973113299
C     -1.9701842311     4.0637076401     -0.6210455907
C     -2.9208928873     3.2491573027     -1.292163677
C     -2.2242358426     2.752875433     2.6987821778
C     -2.4497301651     1.5145997044     3.2252943039
C     -3.4538218375     0.6468654355     2.6602905364
C     -3.0641085401     -0.6790200378     3.0209498279
C     -3.4928936155     -1.7470325486     2.2802439688
C     0.3438561557     4.5079111295     1.0188429186
C     -0.8568469597     4.2189555808     1.6055422276
C     -0.9015275047     3.2998618889     2.7107238557
C     -0.3607089173     3.6143602973     -2.4747229686
C     -0.6605487378     4.2948074992     -1.2552513186
C     0.4570669898     4.588242784     -0.4354712347
C     -2.1267258622     -4.2697086392     0.1897864593
C     -3.0494876648     -3.5386197111     0.9082904448
C     -2.6397639775     -2.8964944119     2.129306321
C     -1.7166986236     -0.6570118992     3.5502312416
C     0.6167534761     -1.288401534     3.215195231
C     -0.7879993223     -1.6637950966     3.2427259803
C     -1.2793816324     -2.863309296     2.5450308718
C     2.8932627535     -1.8403642056     2.4912041548
C     1.5628099713     -2.2606948312     2.6880359929
C     1.0908274508     -3.4388160688     1.9551747276
C     -0.3374458265     -3.7120499871     1.8434593667
C     -0.8059510043     -4.4408840945     0.7133606468
C     1.5431521908     3.9335939099     1.5560037741
C     1.5086772222     2.8778294334     2.5123126667
C     0.2274426245     2.5145861323     3.0764781644
C     -0.0044299389     1.1369904689     3.5246663374
C     -1.3354590976     0.7142096927     3.683834256
C     2.5907728253     1.9059689077     2.5127829014
C     2.3467278378     0.5354708066     2.9793757527
C     1.0077171508     0.10698627     3.3587172796
C     3.2799195204     -0.46166153     2.6382209428
C     0.0566154815     -4.6051242362     -0.4290827594
C     1.3879325122     -4.3945853572     -0.306529232
C     1.9466681517     -3.9782314041     0.959414281
C     4.4965033781     1.0414757806     1.1530043509
C     4.3703863464     -0.2093763802     1.7182167688
C     4.5802789683     -1.3938799628     0.9198516749
C     3.7421625192     -2.4276429366     1.476051838
C     3.2236513343     -3.4124705717     0.6609836977
C     2.4753670455     3.8960353796     0.4685544048
C     3.5147318864     3.0178084371     0.4944211114
C     3.6692446593     2.1164068606     1.6121872191
C     0.9269406581     3.0726809624     -2.7347923343
C     2.0250582116     3.3104743258     -1.8914326484
C     1.7715919078     4.1560740688     -0.7708293393
C     4.6461242847     0.0287217642     -1.0800523458
C     3.7447055404     -0.0349064567     -2.2058046535
C     2.9217409211     1.0406923569     -2.5567976394
C     4.6547343726     1.1694639488     -0.2915158478
C     3.9421021934     2.3284653027     -0.7137390274
C     3.0876645374     2.3120897488     -1.8415272335
C     3.3324212028     -3.2773596046     -0.789671703
C     4.7050457412     -1.2753775098     -0.4714500513
C     3.9665160893     -2.1765256741     -1.3282729404


