90

 C     2.9004562664     -2.0605073071     -2.4465840804
C     2.8871703582     -0.7415054868     -2.9057118417
C     3.8172537786     0.1362595157     -2.2732533111
C     3.6558799675     1.5570065366     -2.3427891252
C     2.572491781     2.0774180901     -3.0187707956
C     1.7545845515     -2.9154253929     -2.6002548544
C     0.4951129285     -2.3982229346     -3.0018014328
C     0.4216506223     -0.9938490155     -3.4214991334
C     1.6471888536     -0.2147270492     -3.469443556
C     1.5553097206     1.1935153192     -3.5622688996
C     -2.0698232374     -1.0404432192     -3.052364225
C     -0.8552439739     -0.3115238458     -3.4043326508
C     -0.8931556147     1.1421347635     -3.3540631687
C     0.3092688465     1.8526962474     -3.4481580825
C     -3.2314006908     -0.2901782389     -2.7516490358
C     -1.9875487011     -2.4142778328     -2.5722493498
C     -0.6977819471     -3.0887767351     -2.533872923
C     -3.015054281     -2.8752794759     -1.7044603462
C     3.4209178518     3.2419885182     -0.5744406909
C     2.3394881409     3.8581063774     -1.3357481311
C     4.0650740536     2.1235535529     -1.0689316088
C     1.9106104931     3.2651855891     -2.5204876882
C     0.5105511678     3.1337219809     -2.7747442931
C     1.377988112     4.3783360826     -0.4173870523
C     -0.0122722129     4.3113798719     -0.6754846377
C     -0.4588902432     3.6560470298     -1.9071670657
C     -3.2049307693     1.1499772964     -2.6024097282
C     -2.0228512555     1.8726190963     -2.797410396
C     -1.7981226615     3.0923870969     -2.0136621641
C     -2.7201957459     3.4026232167     -0.9962932949
C     4.0040623223     1.0254030087     1.1653153519
C     3.3256603808     2.2186666382     1.6909616029
C     4.3898508923     1.0338774201     -0.1945941798
C     3.0990731418     3.3156263087     0.817064952
C     1.9003831683     4.1327920176     0.9230744897
C     1.0414479238     3.9796496812     1.9799302637
C     1.2876566642     2.9480706341     2.953833984
C     2.4045759957     2.0786688426     2.8203700271
C     2.2505775731     0.8124942127     3.403029642
C     -0.3763328317     4.1102981324     1.7782820972
C     -2.2376672476     3.8837779651     0.2909527423
C     -0.9098890269     4.3000035249     0.4742243447
C     3.0147828032     -0.3257870173     2.961271487
C     3.8182645076     -0.2843044036     1.8042748066
C     3.9652951949     -1.5309909437     1.0378160469
C     2.254829485     -1.4898623961     3.3068027406
C     2.426043102     -2.6618476794     2.6227480027
C     3.3493155665     -2.7134606663     1.5214684407
C     0.6109343239     -4.6965042947     0.3587555048
C     1.6221219594     -4.2736777165     1.1951019174
C     1.2880876174     -3.5066108892     2.3676508076
C     0.0094178552     2.4680866272     3.3774814477
C     -0.2003923836     1.1052348411     3.711223412
C     0.9697529088     0.3401133823     3.8527206023
C     0.937764937     -1.0832413243     3.7220650565
C     -0.2206102557     -1.7691129861     3.315727795
C     -0.0382888469     -3.0574334657     2.6285877765
C     4.1715659615     -1.4490288207     -0.4043602573
C     4.3552965747     -0.1817515502     -0.9872991292
C     2.8634426114     -3.7526904739     0.6400912866
C     2.9880332778     -3.6142545632     -0.7347819989
C     3.6199450484     -2.4433560111     -1.2586919306
C     0.7421473421     -4.5308190793     -1.0871310908
C     1.8770944386     -3.9510268822     -1.6064804049
C     -0.533690707     -4.1670701387     -1.6160311167
C     -1.4716011868     -4.3320879432     -0.5343980549
C     -3.2261608217     -3.1184791034     0.6206839916
C     -2.6729591561     -3.7043970499     -0.5749690166
C     -2.5312832373     1.2653748009     2.8557817714
C     -1.451920412     0.4362882167     3.3809248747
C     -1.460649477     -1.000084768     3.1715205197
C     -3.6389491671     0.6219433015     2.2868544959
C     -3.6712356285     -0.7981537545     2.1127394744
C     -2.5713745815     -1.6190829137     2.4688747531
C     -2.385787711     -2.8764860702     1.7395349594
C     -1.1068911428     -3.5793615873     1.7953233483
C     -0.7514693659     -4.4298830435     0.7101809739
C     -4.0129519163     2.4416005014     0.6767782488
C     -2.9593759494     3.182440525     1.3105342436
C     -2.2706565458     2.6506517323     2.4387495133
C     -1.0113537122     3.2183759752     2.6943267908
C     -4.4108700865     1.2297902941     1.2051958109
C     -4.7459865671     0.3216042785     -1.0569218104
C     -4.1615793457     1.5238751815     -1.5932700855
C     -3.8753120908     2.597272286     -0.7593954845
C     -4.8655536904     0.1752488877     0.3325114948
C     -4.2078168836     -2.1752008038     0.1777275672
C     -4.0772133778     -2.0262996515     -1.2686571664
C     -4.2431603928     -0.7836821363     -1.8455651117
C     -4.4964359916     -1.0753887383     0.9535109411


