90

 C     -3.0660199987     -3.2452122176     -1.4113388271
C     1.0372250133     -3.5076106344     -2.2898757475
C     -0.3647639853     -3.5831180982     -2.2351254016
C     -0.9188920893     -4.3434932877     -1.1597506574
C     -2.2560648688     -4.122648911     -0.7234684635
C     1.8803225723     -3.9713032412     -1.1984458392
C     1.2791010337     -4.3979658018     0.0157184658
C     -0.1177231761     -4.604142401     0.0135122253
C     1.8756419366     -3.9653364725     1.230089744
C     3.0837956252     -3.2124117856     -1.1979009889
C     3.6834088428     -2.7626311163     0.0163198311
C     3.0789602827     -3.2065806385     1.230518274
C     4.4323240366     -0.6965100902     1.2120571331
C     4.3864259211     -1.4625568354     0.0145942418
C     4.437020996     -0.7022589363     -1.1863210095
C     -4.0392754958     -2.4334896468     0.7004334858
C     -3.0717635866     -3.2382133931     1.4206567498
C     -4.036400234     -2.4368644902     -0.6989018345
C     -2.2589545768     -4.1191308082     0.7402361294
C     -0.9236933728     -4.337738269     1.1826731098
C     -0.3736927658     -3.571972653     2.2562510669
C     1.028152868     -3.4961894465     2.3161011908
C     -4.1861156193     1.2047874939     1.3944837503
C     -4.5289096242     0.0055902165     0.7269344892
C     -4.1846131004     -1.1897715757     1.4005905335
C     -1.1505413686     -2.4753713999     2.8377017907
C     -2.5118976943     -2.4172628412     2.4756442642
C     -3.2220528417     -1.1811121843     2.476589924
C     -0.4801391172     -1.248686182     3.3002655888
C     -2.6015347651     0.0122910842     2.9113445456
C     -3.2235237166     1.2027680532     2.4706135413
C     -4.5260233373     0.0019153089     -0.739716907
C     -4.1790347637     -1.1968250218     -1.405913077
C     -4.0423415635     2.4450175575     0.6880305843
C     -4.0397210417     2.4416358947     -0.7113028527
C     -4.1806657758     1.1977303497     -1.4120233613
C     -3.0758306836     3.2546406525     1.4042605924
C     -3.0704493822     3.2476367706     -1.4277371115
C     -2.2614831809     4.1296343187     -0.7441383925
C     -2.2643396985     4.1331381488     0.7195678277
C     1.6736946882     -2.4048072172     2.9444154573
C     0.9623582445     -1.2365199352     3.3772708778
C     -1.2027608466     0.0142079827     3.3045346742
C     -0.4818584135     1.2777711459     3.2940706989
C     -1.1537885101     2.5013678122     2.8254558217
C     -2.5149759075     2.4396902969     2.4636177484
C     -3.2138811343     1.1903421948     -2.4842328621
C     -2.5900878846     -0.0022377835     -2.9165497187
C     -3.2122296988     -1.1935317203     -2.478260037
C     -2.5020901383     -2.4295244494     -2.4684837252
C     -0.4672629835     -1.2649180379     -3.290958417
C     -1.1394134447     -2.4894055164     -2.8249828772
C     -2.5053723568     2.4274353079     -2.4805106608
C     -1.1426810598     2.4873379423     -2.8372286776
C     -0.468848882     1.2615374963     -3.2971543919
C     -1.1897801321     -0.0023090406     -3.3042516446
C     1.6820455259     2.4205023656     -2.9328689117
C     0.9739508648     1.2512725103     -3.3685035777
C     1.7008860445     -0.0005228556     -3.4115561744
C     0.9757015675     -1.2530581385     -3.3623650579
C     1.6853115994     -2.4190658893     -2.9210639939
C     -0.3695665598     3.5849601493     -2.2527402161
C     1.0326063416     3.5110272974     -2.307096598
C     -0.9247887998     4.349999488     -1.181336963
C     2.9999895876     -2.3266440517     -2.3375502452
C     3.6580203531     -1.1306244229     -2.3529041462
C     3.0763234578     0.0014285481     -2.9947038224
C     3.0795149792     3.2241180737     -1.2134698859
C     2.9969111721     2.3326219321     -2.3487429151
C     3.656465554     1.1375165713     -2.3582103868
C     3.0748138923     3.2299443751     1.2149472342
C     3.6797805749     2.7809603126     0.0030940615
C     -0.1237599978     4.6174577256     -0.0090139787
C     1.8703451086     3.987248281     1.2107684723
C     1.273332303     4.4131228407     -0.0057467311
C     1.8752084206     3.9812893608     -1.2177661167
C     1.6874689734     0.0162326097     3.4231725133
C     0.9608294965     1.2678128252     3.3711347856
C     1.6706280551     2.4347481323     2.9326119145
C     1.0235838915     3.5224392378     2.2988798107
C     -0.3782732109     3.5961016349     2.238636195
C     -0.9291768011     4.3557441818     1.1610847902
C     3.6486640451     -1.1192241168     2.3775089176
C     2.9907229598     -2.3151959131     2.3654547148
C     3.6472499805     1.1489160816     2.3721990084
C     3.064525313     0.0160958342     3.0117116651
C     2.9877049838     2.3440660344     2.3542633936
C     4.4361055877     0.7158290534     -1.189693928
C     4.3844996999     1.4818136282     0.0075806357
C     4.4313857924     0.7215823545     1.2086846618


