90

 C     1.2475719572     3.3291195309     -2.4363880016
C     2.0340839947     2.2624733013     -2.8949129082
C     3.2626946475     2.0704977097     -2.1977121138
C     3.9548176505     0.8148784471     -2.2445110651
C     3.4048718215     -0.2357385914     -2.9499937899
C     -0.177982213     3.3497205665     -2.6557581924
C     -2.2089665101     2.1266371097     -2.9331269045
C     -0.8378807939     2.2381885514     -3.2441691864
C     -0.0685840341     1.0477527026     -3.6191621164
C     1.3756492966     1.1159435178     -3.5347576001
C     2.1011171827     -0.0938484683     -3.5705315416
C     4.6653754691     -0.7066067718     -0.4527841727
C     4.1557473211     -1.8291946833     -1.2326107238
C     4.56393455     0.5823288912     -0.9468871637
C     3.5135455105     -1.5876795108     -2.443177643
C     2.2991085106     -2.2779070976     -2.747380806
C     3.6258669374     -2.8041416375     -0.3355135186
C     2.4468892463     -3.5311310701     -0.6330261864
C     1.7532223452     -3.247665417     -1.8918717
C     -1.9047198854     -2.7219329435     -2.709968297
C     -0.5128351724     -2.6720255569     -2.8840639341
C     0.3297988867     -3.5342534812     -2.0465964036
C     -0.2964251726     -4.2918169593     -1.0367834144
C     -2.8756346379     0.8479152601     -2.9959154514
C     -2.1573005889     -0.3178739577     -3.3441383135
C     -0.7289123949     -0.2405482716     -3.6288663763
C     0.0497882698     -1.4557784285     -3.4730761665
C     1.4433299334     -1.3520418839     -3.48243413
C     -2.7179253984     -1.5379850361     -2.9011872903
C     3.81591007     1.4364832556     1.2676630616
C     3.9371551208     0.0712273696     1.7945001606
C     4.170900491     1.6551840921     -0.082325337
C     4.4015642353     -0.9552984598     0.9287249702
C     3.8758196941     -2.3096504436     1.0137627298
C     3.0554253988     -2.6768451255     2.0469466819
C     2.6572102499     -1.700042308     3.0248977296
C     3.0813231448     -0.3456350238     2.9066972367
C     2.2298075648     0.6032617382     3.4857714618
C     1.9636870471     -3.5846199808     1.8107100957
C     0.3373370602     -4.4266560779     0.2699140918
C     1.6636383804     -4.0301429783     0.4924432813
C     2.2007341402     1.9739198228     3.0390093234
C     2.8930833576     2.3997356745     1.8858906869
C     2.2967655869     3.4857118727     1.0994384648
C     0.9117775266     2.4958887265     3.3832993957
C     0.3762131008     3.5342834086     2.6661917358
C     1.0867980065     4.0745674532     1.5514541635
C     -3.0511269403     2.2957499609     2.0639970824
C     -1.047499189     3.5535016376     2.4061138417
C     -1.8733766221     2.4661753179     2.8145730269
C     1.3291160371     -2.0388788898     3.4259393311
C     0.3812113846     -1.0469310004     3.7820076908
C     0.9100570288     0.2537057159     3.9431534565
C     0.0754285966     1.4035953663     3.8416224548
C     -1.8567829488     -0.0357464848     3.3238868503
C     -1.2776192615     1.3025624737     3.4915933558
C     2.5471576213     3.5405634378     -0.3351718839
C     3.4606779318     2.6298494429     -0.8950534252
C     0.0689940179     4.5563672217     0.6370119122
C     0.2836353797     4.5209592698     -0.7195944629
C     1.5335681704     4.0161240111     -1.2151887374
C     -1.2507473934     4.2277421341     1.1656392476
C     -2.3263045618     3.8865785039     0.3068642558
C     -3.2983596254     3.0080180258     0.8559211394
C     -2.084146981     3.8328675474     -1.1409268751
C     -0.7838395091     4.1224842549     -1.6199966571
C     -2.8320659596     2.9152082108     -1.9198274319
C     -4.377032164     0.9106145112     0.7383556867
C     -4.1027247391     2.1371317292     0.0201875289
C     -3.875759814     2.0938093413     -1.3382450616
C     -4.2398082361     -1.4844562897     0.8259905351
C     -4.5332944608     -0.3327947113     0.0636506149
C     -1.4460671347     -2.4845451195     2.8536622138
C     -1.0280060756     -1.2102881074     3.457625891
C     -2.7017664936     -2.5535061486     2.2297803547
C     -3.5160452732     -1.3863332335     2.0673314919
C     -3.1179985555     -0.1392970023     2.6042758651
C     -3.690991836     0.9988661608     1.9813495926
C     -1.949709998     -4.217388831     0.5914178392
C     -0.6805328439     -4.2576099656     1.2648891994
C     -0.4367580655     -3.4602738564     2.4214803307
C     0.9200556678     -3.2234099209     2.7110654768
C     -2.9602597039     -3.4257193115     1.0975057093
C     -3.6465900256     -2.7792118472     -1.1699591531
C     -2.5166468493     -3.5159120687     -1.687753429
C     -1.7095520493     -4.2607790387     -0.8359055016
C     -3.8617716976     -2.7309243568     0.2020176212
C     -3.9289859464     0.828195003     -2.038293665
C     -4.3018480804     -0.3752890153     -1.385097255
C     -3.794229707     -1.5692529166     -1.9542708809


