90

 C     2.3726706093     2.4243125134     -2.7571754037
C     1.0206208456     2.2315258018     -3.1588832429
C     0.0256051821     3.1419940208     -2.6309341698
C     -1.3810828401     2.7601283488     -2.6479211338
C     -2.2633638086     3.4440243806     -1.76563589
C     -3.4850528174     2.858698941     -1.3009832171
C     -1.7758255124     1.4275998345     -3.1151260034
C     -3.0558488184     0.9571507579     -2.7562004966
C     -3.9077142179     1.65842619     -1.8303807244
C     3.3006285675     1.3331387542     -2.6882612932
C     0.6171041346     0.8963205939     -3.6132865632
C     -0.7573202298     0.445236136     -3.504964655
C     2.9564866334     0.1169709918     -3.1971008663
C     1.6231513696     -0.0924326199     -3.7193218198
C     4.4298747646     0.3697427286     0.6732915217
C     4.3779063204     0.2207659492     -0.73429462
C     4.0703306199     1.4082879637     -1.4601400999
C     -4.0930746858     2.0896851173     0.9499627684
C     -4.6495050079     0.8841413833     0.3769776857
C     -3.5917722889     3.0913304143     0.1328309492
C     -4.5688450052     0.6766631633     -0.9943665514
C     -4.2370735486     -0.6325985307     -1.5016862505
C     -4.1352677487     -1.7563213263     -0.6470037079
C     -3.3439231653     -2.829052388     -1.134017196
C     1.3374406435     -1.4807782957     -3.5927463561
C     0.0349921085     -1.9494312579     -3.3895899876
C     -1.0453435251     -0.9745972312     -3.4120428977
C     -2.3419676357     -1.4108698777     -2.9094620095
C     -3.318354313     -0.4489938662     -2.5902454802
C     -2.4820555735     -2.6626949758     -2.2552683415
C     -1.7167320109     3.5041630795     1.7153315657
C     -2.1605699093     2.3451387302     2.4976899013
C     -2.449487266     3.836345356     0.5487182805
C     -3.3641033434     1.7220658583     2.1317854547
C     -3.5666256253     0.3047072491     2.3463451983
C     -2.6538227147     -1.8745575953     2.709561824
C     -2.5931523732     -0.4929940098     2.9931097897
C     -1.3423587114     0.112422711     3.4436141737
C     -1.1815899457     1.5460026205     3.2513170269
C     0.1048535835     2.0802678265     3.3974742685
C     -4.1943443059     -1.5362413246     0.8025086614
C     -4.3708084459     -0.2128583023     1.2789930361
C     -3.4417131658     -2.395973107     1.640865231
C     -1.7398316825     4.2178480777     -0.662593928
C     0.5484625733     3.2604298801     2.6589903113
C     -0.3167975618     3.9204435551     1.7671096895
C     0.3062122661     4.5044641199     0.6255455488
C     -0.4186520656     4.5410214945     -0.6272959723
C     1.9447140186     3.1393308022     2.4148528233
C     2.533275756     3.551311325     1.1819554157
C     1.6807066516     4.284395819     0.3193074147
C     1.7697474056     4.1100254544     -1.125546433
C     2.7235889153     3.2912204533     -1.6678598417
C     2.3875034275     1.9345854127     3.0762844792
C     3.4357839269     1.2097471892     2.5756660708
C     4.0555284251     1.583447516     1.3170144527
C     3.599371905     2.7216716539     0.5969960659
C     3.7005997656     2.6265940605     -0.8162191004
C     3.4255404272     -0.2224550412     2.6966040708
C     2.1768299616     -2.2436387654     2.9212378609
C     2.3240036465     -0.9025157737     3.2952785652
C     -1.4921057504     -2.7119532405     2.8844886599
C     -0.27947498     -2.1662129103     3.3509494235
C     -0.1839317025     -0.7318969608     3.6497941544
C     1.1369992851     -0.1419559456     3.7087558967
C     1.2335156466     1.2613105054     3.6508386581
C     0.8852342228     -2.8933263911     2.9881903311
C     0.4509368367     4.1209407557     -1.6881771844
C     2.1156562069     -3.8738682267     1.2996085927
C     2.9283495838     -2.8228898289     1.8525049091
C     3.7791687705     -2.0241509873     1.0341646351
C     4.0821661582     -0.7460210039     1.5462492312
C     2.1575608565     -4.1123034815     -0.052357996
C     -1.5378199308     -3.7623950883     1.9176397744
C     -0.3528830277     -4.2955751752     1.3574777374
C     0.8514215721     -3.9296822814     2.0129326414
C     -1.4662821268     -4.2332949803     -0.8542041589
C     -2.6917768877     -3.7657313076     -0.2397870764
C     -2.7292608224     -3.5416383895     1.1195741072
C     0.9269836873     -4.4363888141     -0.7646978051
C     -0.3142347394     -4.5504643074     -0.0864511156
C     2.4870508536     -2.1119485083     -2.953699602
C     2.3249197272     -3.2190503658     -2.160454189
C     1.0188767376     -3.8281790999     -2.0501776408
C     -0.1121482592     -3.2285506894     -2.6753482327
C     -1.3520074191     -3.5507580595     -2.1008021186
C     3.7900361396     -2.2329151041     -0.4153929261
C     4.041722864     -1.0928167859     -1.3006998034
C     3.4222379166     -1.1010565855     -2.5761592832
C     3.0145139961     -3.3114366829     -0.9083154731


