90

 C     -4.1198886312     -2.1170999782     -1.1280367387
C     -3.8006191468     -1.3270155546     -2.3045935814
C     -4.5764441742     -1.4962913069     0.0225278924
C     -4.0499568712     0.0284341818     -2.3139216967
C     -3.1157914998     0.9145112322     -2.9202245009
C     -1.3961552055     -4.2283427285     0.2186500661
C     -2.6315318513     -3.5610393893     0.2472368452
C     -3.1397394515     -3.1532662929     -1.0205690908
C     -2.2491613895     -3.0264762388     -2.1397087286
C     -0.9425777771     -3.5234748632     -2.1096308184
C     -0.6224779286     -4.3383277392     -0.9856651818
C     1.7481892891     -4.0561232122     -1.3969368869
C     0.7379779063     -4.5749441631     -0.6163901645
C     -1.0149824301     2.7662788947     -2.9350910627
C     -0.7360715343     1.4301469442     -3.3797041625
C     -1.8318007413     0.4723998086     -3.373474611
C     -1.541295951     -0.9488286318     -3.3196885309
C     -2.5689784296     -1.8196815935     -2.8491782814
C     0.9123973828     -0.4538874325     -3.3693228732
C     -0.1639878106     -1.4138510962     -3.2869639968
C     0.1083761763     -2.7723756734     -2.790170063
C     1.4282684932     -3.145099787     -2.4841545736
C     -2.995242331     -2.8194980849     1.4451396725
C     -4.025389604     -1.8510466309     1.3164852147
C     -4.029877446     -0.6551527464     2.1064391096
C     -1.9714582452     -2.6257532425     2.4762912357
C     -2.0515886597     -1.4751044924     3.2745238553
C     -3.06650634     -0.4844326227     3.080468685
C     0.8297657443     -4.5145429931     0.8342378799
C     -0.4705052977     -4.1933936521     1.3368113488
C     -0.6600147291     -3.2544928119     2.3738517316
C     1.9548768599     -3.9667620625     1.4193722959
C     1.7965794962     -3.0072148883     2.4764472444
C     0.5310507768     -2.5914766253     2.9275919826
C     -1.9095904373     2.9563689168     2.4438378093
C     -2.869868501     1.9209885002     2.5194683396
C     -2.5148958219     0.8153218157     3.3279795477
C     -1.1592724773     0.6222765403     3.7729043874
C     1.2181314323     1.1467094422     3.3534429424
C     -0.1509074314     1.5804475379     3.5432603491
C     -0.5978284598     2.8158884516     2.9945613232
C     3.3819909054     1.5867728478     2.2485876852
C     2.1553587555     2.0847289765     2.7234337663
C     0.4252676631     -1.245096648     3.4908530223
C     -0.8655353094     -0.7743787832     3.730522234
C     2.8944217649     -2.0759709009     2.3866617147
C     2.7667059636     -0.7375209863     2.8273489778
C     1.5097741338     -0.2704272869     3.3703409455
C     3.6735582497     0.1891064042     2.262852571
C     -3.8127359357     1.7396546458     1.4074919755
C     -4.4449062172     0.4758383914     1.2913270828
C     -4.8392851754     -0.0645999883     0.0212420482
C     -3.6424585163     2.550606809     0.1979840305
C     -4.0650294551     1.9884463827     -1.0325746439
C     -4.6188553847     0.6784681457     -1.1286847037
C     -1.8163404242     3.8263410521     1.2989220178
C     -2.5974370135     3.5889559126     0.1468561063
C     -1.9871343168     3.9087015     -1.1157577841
C     -2.2540659117     3.0817940223     -2.2628862857
C     -3.2606213609     2.1730391602     -2.2356501368
C     -0.456666288     4.2848960245     1.2087401506
C     1.5504359852     4.3142710112     -0.1535236617
C     0.1562476421     4.5178908915     -0.0515296675
C     -0.62406305     4.2836654488     -1.2119346886
C     1.6567941611     3.3311670153     2.1190390761
C     0.2931785596     3.6600150206     2.2594082387
C     2.3158729298     3.8479074564     0.9569577219
C     3.3864277836     3.1876694286     -1.0282749233
C     2.1600508599     3.7936937769     -1.3797357305
C     1.3282031491     3.2246068075     -2.3871185572
C     -0.0315306553     3.5880920005     -2.3548859423
C     3.8399410371     2.0766239659     -1.7337511525
C     4.6557296029     1.0568522959     0.3445284812
C     4.0537135945     2.1509915496     1.0889107209
C     3.4946113545     3.214412294     0.4273034117
C     4.554529145     1.0252184356     -1.0478074037
C     3.6923527408     -2.4150911342     1.2402209265
C     4.3488297303     -1.4094239038     0.4832202686
C     4.4709813404     -0.1447903934     1.1059015647
C     3.4734362349     -2.4911460675     -1.5632102718
C     2.9774091521     -3.5915689453     -0.7833396973
C     3.0838450648     -3.5560786682     0.606835801
C     4.2429382685     -0.2258622694     -1.6925074357
C     4.2319388324     -1.4494992312     -0.979521823
C     1.6803458248     1.9359737466     -2.984509504
C     0.6302570726     0.9837920283     -3.3735082855
C     2.977983461     1.4551196311     -2.7037486504
C     3.2571431547     0.0488037671     -2.7014377309
C     2.262457188     -0.8907393631     -3.0483346492
C     2.4957967563     -2.2089180086     -2.5850914249


