90

 C     -4.1137468339     -1.9224474809     1.4175297408
C     -4.6690879451     -0.8609442603     0.7354427956
C     -4.4147965205     0.4742169378     1.1862225972
C     -3.2490606094     -1.6620949202     2.5349402407
C     -2.8181873404     -0.3470433785     2.8722082227
C     -3.1935381968     2.9970272116     1.1917681048
C     -0.7276263638     3.3823373149     2.453242884
C     -1.4663150117     2.2274222707     2.7781969203
C     -2.80028225     2.0667123018     2.1891249088
C     -3.459156068     0.7654609161     2.2015600603
C     -4.1137744753     -1.9132017864     -1.4131074933
C     -3.5880868421     -3.0684746266     -0.6936586479
C     -4.6691063982     -0.8561748155     -0.7240943418
C     -3.5880724823     -3.0729959203     0.6905451517
C     -1.1363981182     -2.628709914     3.2093635673
C     -2.3417044158     -2.7765815982     2.5959892065
C     -2.4399500611     -3.5728078705     1.3919940352
C     -1.4657887018     -0.1735926401     3.4260747149
C     -0.7147475262     -1.3302443276     3.6896651323
C     -0.7336344695     1.0740028865     3.2808893872
C     -1.1364636136     -2.6077470422     -3.2095688569
C     -3.2491158434     -1.6455587988     -2.5288094856
C     -2.3417531684     -2.7596180789     -2.5971447667
C     0.0021201515     -3.3485241499     2.726203923
C     0.0030566933     -3.9682144667     1.4477041296
C     -1.2685111924     -4.032972147     0.7264655
C     -1.2685229041     -4.0281899395     -0.7358784587
C     -2.4399736234     -3.5636878986     -1.3983702044
C     0.0020664668     -3.3306914521     -2.7311312143
C     0.0030279505     -3.9587133717     -1.4567057346
C     -0.7148284394     -1.3061725793     -3.6813980252
C     -1.4658686377     -0.1512651422     -3.4102562109
C     -2.8182534107     -0.3283313783     -2.8574993048
C     -3.4592062038     0.7797688219     -2.1795937357
C     -4.4148246785     0.4818997502     -1.1661554424
C     -0.733708975     1.0953524228     -3.2569502803
C     -1.4663773454     2.2454714491     -2.7467248176
C     -2.8003341116     2.0809142643     -2.1586827857
C     -0.7276833272     3.398234957     -2.4142604765
C     2.3441474283     -2.7525352077     -2.597179792
C     1.1383829039     -2.6042966645     -3.2095745709
C     0.7127884565     -1.3040138351     -3.6814103641
C     3.2481172195     -1.6357285466     -2.5288531419
C     2.8132592142     -0.3198253268     -2.8575429515
C     1.4603339041     -0.1468404641     -3.4102831441
C     0.7244118481     1.0975568701     -3.2569696006
C     1.4536146843     2.2498800976     -2.7467532031
C     0.711451244     3.4004080538     -2.4142721841
C     2.444816298     -3.5562987121     -1.3984009107
C     2.4448460416     -3.5654145083     1.3919762201
C     1.2747889167     -4.0243410986     -0.7358965682
C     1.2748009282     -4.0291247852     0.7264537971
C     -1.1673901117     4.3229826938     -1.3884512069
C     -2.3366099671     4.0577086314     -0.7080859417
C     -3.1935665809     3.0046947178     -1.1552650068
C     -3.8907859401     2.529831521     0.0167236634
C     -4.4796055028     1.3080787463     0.0127436883
C     -0.0102249177     4.8075315546     -0.6777216982
C     -2.3365953963     4.0529448101     0.7514507062
C     -1.1673556657     4.3137614891     1.4335019637
C     -0.0102093432     4.802949593     0.7259256519
C     2.3184086421     4.0647285194     -0.7081146
C     1.1483835406     4.3264725144     -1.3884665099
C     2.788065377     2.0893487044     -2.1587244296
C     3.178525793     3.0143047876     -1.1553060942
C     3.4508665517     0.7902031739     -2.1796324087
C     4.4697030217     1.3215902277     0.012690463
C     3.8771958725     2.5415549557     0.0166760955
C     3.1785515154     3.0066388814     1.1917300537
C     2.3184229275     4.0599620038     0.7514230667
C     1.1484132175     4.3172571091     1.433490423
C     4.1136068078     -1.90076296     -1.4131567148
C     4.6657390301     -0.8420642693     -0.7241451325
C     4.4073934151     0.4952288842     -1.1662132359
C     4.1136392411     -1.9100050352     1.4174953769
C     3.5914478102     -3.0621329864     0.6905114714
C     3.5914284651     -3.0576081912     -0.6936940295
C     4.6657550208     -0.8468303781     0.7353899475
C     1.1384495246     -2.6252652062     3.2093534036
C     3.2481778774     -1.6522659325     2.5349183986
C     2.3441984338     -2.7694960477     2.5959743033
C     0.7115006984     3.3845104465     2.4532397328
C     2.7881184003     2.0751518755     2.1890979347
C     1.453673547     2.2318360447     2.7781886567
C     0.7244863117     1.0762074665     3.280885785
C     4.4074265214     0.4875475169     1.1861709362
C     3.450918419     0.7759017863     2.2015257211
C     2.8133296023     -0.3385307815     2.8721877346
C     1.4604099974     -0.1691687293     3.4260673638
C     0.7128735982     -1.3280855304     3.6896599418


