90

 C     4.146835292     0.5980954703     1.7462779792
C     4.507893047     -0.2682109412     0.6790608523
C     4.204058197     -1.6409964606     0.8725909735
C     3.2877186208     0.1617802871     2.7959139117
C     2.8254743441     -1.1637249414     2.8914206379
C     3.4212183167     -2.0817896321     1.9797684651
C     4.5066057329     0.2703405141     -0.6842037085
C     4.1454973426     -0.5965142454     -1.7509596999
C     3.8405583608     1.993963768     1.5168004016
C     3.8822087682     2.5142249765     0.2466372055
C     4.2004326966     1.64266122     -0.877343325
C     2.7882668128     2.4082311481     2.4153074979
C     1.8111796586     3.362906516     2.0219101325
C     0.5759373808     3.2710578491     2.6933760366
C     0.8882927792     -2.6563901255     3.1048602668
C     1.4671212568     -1.4095841467     3.4050750058
C     0.5723329169     -0.3101428914     3.7209835234
C     1.1218218847     1.0460282881     3.6548791463
C     2.4414625961     1.2647434694     3.2000037332
C     0.2487495751     2.1466887     3.5038615385
C     2.6998075312     3.2696566931     -1.5699095081
C     3.4154949263     2.0822552148     -1.9835167627
C     2.8199810001     1.163281744     -2.8944047794
C     3.2843688257     -0.1615149415     -2.7994923363
C     1.4930892139     3.568590906     -2.1461222774
C     1.831766253     3.9138659627     0.6660381916
C     2.897802835     3.4962753675     -0.1705272856
C     0.4704670318     4.1903080824     -1.3699377441
C     0.5702984087     4.3161878144     0.0392126556
C     0.8802429602     2.6529799831     -3.1053559823
C     1.4605926112     1.4070592522     -3.406314503
C     0.5670842828     0.3062548172     -3.7210762119
C     1.1187273589     -1.0490759796     -3.6556827099
C     2.4392837789     -1.2657711667     -3.2024997071
C     0.2475315109     -2.151070667     -3.5035484015
C     -0.5225043318     2.8268161876     -3.0299335203
C     -1.4214664907     1.7703728382     -3.2584453442
C     -0.8709915373     0.4874688702     -3.6530702235
C     -3.0413500656     -0.5539312452     -2.952400418
C     -1.7418658795     -0.6904224321     -3.5358235591
C     -1.1768881672     -1.9731924933     -3.4690721567
C     -1.949587581     3.8650756084     -1.3192226062
C     -0.7791393103     3.8452494209     -2.011779854
C     -2.9829654436     2.913838321     -1.6396678259
C     -2.7445730058     1.8712277945     -2.6048606882
C     -3.5174828368     0.7211724366     -2.467520717
C     -0.6558149132     3.7713654423     2.1179686997
C     -0.689928992     4.2717597883     0.8008072209
C     -1.9375366116     4.1191847492     0.1052253395
C     0.5774805251     -3.2749389833     -2.6934913543
C     1.8137224367     -3.3648942853     -2.02360745
C     2.7888405676     -2.4087238165     -2.4182523634
C     3.8416433747     -1.9928470374     -1.5210886289
C     3.8857227603     -2.5130452855     -0.250983717
C     0.5768499516     -4.3200656304     -0.0393215128
C     1.8368900467     -3.9158196708     -0.66776275
C     2.9033588395     -3.496598019     0.1674423579
C     0.4786366751     -4.1943418818     1.3699599843
C     1.5012995244     -3.5710663713     2.1448432723
C     2.7068169752     -3.2702867484     1.5670790774
C     -0.6527654314     -3.7771293526     -2.1165021143
C     -1.9313660304     -4.1269031381     -0.1021123589
C     -0.6844223565     -4.2775693154     -0.7992977344
C     -3.609615967     -1.5664783371     -2.145978073
C     -2.932604913     -2.7998369457     -1.9247045863
C     -1.7439265396     -3.0215482774     -2.6612879512
C     -3.023421435     -3.3983883592     -0.6402251172
C     -2.9763895108     -2.9231549319     1.6441314389
C     -1.941971189     -3.8728103717     1.3223548694
C     -0.7706687291     -3.8511929998     2.013410599
C     -3.5132001056     -0.7313075488     2.4726663831
C     -2.7383534217     -1.8801794008     2.6090154226
C     -4.3752532875     -0.9136335035     -1.0859963745
C     -4.3494381795     -0.5018569469     1.3196431642
C     -4.3539316226     -1.4323246293     0.2341528284
C     -3.6922363335     -2.6774674131     0.4516547646
C     -3.6969023976     2.6670575635     -0.4462763814
C     -4.3752465193     0.9021821241     1.0922493853
C     -4.3564115636     1.4208993872     -0.2279224095
C     -4.3518893018     0.4904398144     -1.3134198301
C     -1.7451160078     3.0141179996     2.6641541765
C     -3.6092428352     1.5561985587     2.1512489578
C     -2.9344019411     2.7905929607     1.929102327
C     -3.0277852577     3.3890000935     0.6447427062
C     -0.5142857479     -2.8323725178     3.0312370735
C     -1.4145641454     -1.7773033539     3.260902504
C     -0.8655450445     -0.4935574839     3.6548219124
C     -3.038394578     0.5445253953     2.9569353238
C     -1.7383700224     0.6830005468     3.538691565
C     -1.1754402047     1.9666309206     3.471213054


