90

 C     -2.269906957     3.125048327     2.017725841
C     -2.8548149982     1.9307323783     2.4365532159
C     -3.9216424131     1.4263667202     1.6173396574
C     -4.2309466589     0.0192186245     1.5978910255
C     -3.5753853269     -0.8269097442     2.4376524509
C     -0.9133550464     3.4524081725     2.3816162144
C     1.2814353707     2.7100703351     3.0081912705
C     -0.1006504445     2.5418446558     3.1329140685
C     -0.6543203095     1.2355315632     3.5335999645
C     -2.0539505115     0.9886315905     3.2531186636
C     -2.5106138776     -0.339999181     3.313597276
C     -1.3186570165     -3.5717333915     2.3922438589
C     -3.2721733082     -2.1855655721     2.0412858943
C     -2.1631534528     -2.5883998211     2.8421129255
C     0.0949426721     -3.4897460071     2.6873804127
C     1.9805721446     -2.0889154523     3.0996444251
C     0.6245554522     -2.3563280326     3.3582245081
C     2.182960661     1.6081672751     3.2346611528
C     1.692157676     0.3257310131     3.6084875234
C     0.2460409887     0.1252306416     3.7725664866
C     -0.252759598     -1.2385600604     3.7376391143
C     -1.6353817608     -1.4261955349     3.5533026014
C     2.5217875052     -0.7661066137     3.2805412801
C     -1.5120281158     -4.136498227     1.0922554594
C     -2.4836606426     -3.6209333825     0.1971664238
C     -3.4259163582     -2.6175680062     0.698528181
C     -4.0788874691     -1.6793329972     -0.2301781579
C     -4.5298554453     -0.4011004052     0.2467699507
C     -3.7276081414     -1.7372071142     -1.5930001552
C     -0.193099449     -4.5525015482     0.6519042712
C     0.1273104363     -4.5508152779     -0.6801512615
C     -0.8578524522     -4.1009768408     -1.6427907714
C     -2.1362785681     -3.6342311125     -1.2247244506
C     -2.7385518779     -2.6784723031     -2.072538664
C     2.7017582677     -2.7342442109     2.0559256428
C     2.0845859761     -3.6750533535     1.2021324798
C     0.7989600145     -4.1242764653     1.6173127231
C     -3.6518821278     -0.5506494207     -2.4032595258
C     -3.9993400316     0.7209988707     -1.8862937148
C     -4.4836631879     0.7714270019     -0.5509179318
C     -3.2769495424     1.8408107048     -2.3838109244
C     -2.5276328795     -0.7057252664     -3.2847306045
C     1.6186627519     -1.4293226336     -3.5618525212
C     0.2391697388     -1.2188324474     -3.7449441315
C     -0.2381432503     0.1528273423     -3.7712516582
C     -1.6809377949     0.3749913084     -3.6058366597
C     -2.1515409056     1.6626001196     -3.223914024
C     -2.0072729939     -2.0379884712     -3.1122091147
C     -0.1439048904     -3.4708501503     -2.7088770761
C     -0.6556145627     -2.3250445268     -3.3725410946
C     -3.0285381209     3.0187961739     -1.5623920027
C     -3.4083966484     3.0321188098     -0.1941790628
C     -4.136633674     1.9108815976     0.3047475211
C     -2.5516939758     3.7062405061     0.7287366924
C     -1.8007530032     3.6087517301     -1.9797610504
C     0.4434683993     4.266448085     -1.3322592186
C     -0.9575346992     4.29542189     -1.0590247844
C     -1.3652619145     4.36631665     0.2968527085
C     2.5108380231     -0.3585438398     -3.3153539005
C     2.0751115077     0.9766829176     -3.2464917445
C     0.679543857     1.2473126472     -3.5253419796
C     0.1464654454     2.5596144591     -3.1164012393
C     -1.2328067877     2.7487483354     -2.9905470326
C     0.9733463054     3.452547927     -2.3594232781
C     1.4394532517     4.346074055     -0.2689601177
C     1.030597005     4.2730337708     1.0864644977
C     -0.3707053602     4.2643396834     1.3595798474
C     1.8628659382     3.5673959226     2.0028126887
C     2.6153888094     3.670164942     -0.7050571019
C     4.171882931     1.8474752493     -0.292458714
C     3.4613292976     2.9768463418     0.2135543644
C     3.0812423169     2.9608606424     1.5816766625
C     3.5677857645     -0.8676420526     -2.4425508575
C     4.2365252349     -0.037239196     -1.5975073727
C     3.9493731178     1.374689065     -1.6080747112
C     2.8906473075     1.9009074087     -2.4240498363
C     2.3245719977     3.1016044801     -1.9976699847
C     1.2682169979     -3.5769008667     -2.4143455889
C     3.2432535964     -2.2238379237     -2.0547477032
C     2.128077046     -2.6041350122     -2.8580416281
C     3.7055051352     -1.8056270225     1.5822901212
C     4.5287216866     -0.470722669     -0.2490758686
C     4.0577107406     -1.7446871594     0.2198311933
C     3.3901188162     -2.6666626913     -0.7147426424
C     2.4321957477     -3.6582437381     -0.2196705777
C     1.4526281463     -4.1528138208     -1.1179454792
C     3.3110689211     1.7739633144     2.3956438547
C     4.5009240982     0.6973355599     0.5559922875
C     4.0158036928     0.6460998518     1.8910468941
C     3.6483857595     -0.6231590967     2.4000116228


