90

 C     -1.1009026133     -3.8284946565     -1.4393408449
C     -1.5558093195     -2.8781694956     -2.368210613
C     -2.8938878701     -2.2886812957     -2.1521672221
C     -3.2053812211     -0.9838929189     -2.727995808
C     -4.1488660298     -0.1121524536     -2.1030310869
C     -2.216796911     -0.3599919216     -3.5007329657
C     0.2949278024     -4.0426546839     -1.1859537868
C     1.3098498462     -3.3463079124     -1.8681549823
C     0.9007366262     -2.3916135716     -2.8882470761
C     -0.5269137851     -2.1811225156     -3.1338332584
C     -0.9207612384     -0.9730461289     -3.7583051849
C     3.1643287426     -1.3787379155     -2.731917221
C     1.8619500864     -1.3797766316     -3.3082755903
C     3.5026425123     -2.2340936791     -1.6415667456
C     2.5978864496     -3.208742072     -1.1829042926
C     2.721970902     -3.5647430537     0.1903806296
C     -2.0307360428     1.052036301     -3.4773341926
C     -2.7634364092     1.8950941612     -2.6107243799
C     -3.9264650028     1.3029378826     -2.0396093466
C     -4.4756501738     1.7832630369     -0.7878714917
C     -3.8251495912     2.8117465109     -0.1340918988
C     -0.6573969694     1.3135858086     -3.7587385746
C     1.4409695514     2.2750424151     -3.1622325476
C     0.0269249668     2.3769321293     -3.1365329658
C     -0.6238328554     3.1650897915     -2.105782531
C     -2.0585775112     2.9730970313     -1.910257613
C     -2.6402294084     3.4238121158     -0.701556124
C     1.3866062142     -0.1108276058     -3.8388052764
C     0.0025641023     0.0587321458     -4.0329283696
C     2.1212769478     1.0795992945     -3.6143690351
C     -4.7532430554     0.564409001     1.3285771224
C     -4.0253654264     1.6045970753     2.0045424725
C     -5.0036640555     0.6604102683     -0.0486114943
C     -3.6300578029     2.7375198675     1.3024732194
C     -2.3917465086     3.3688765307     1.6182423865
C     -1.546042852     2.8526005726     2.6223403147
C     -0.2075758893     3.2869563861     2.5714330826
C     2.2508694049     2.9476083233     -2.2021564287
C     1.6602979777     3.570818997     -1.0815791858
C     0.2033801634     3.7287748266     -1.0568527774
C     -0.4186959993     4.018985954     0.218475085
C     -1.8124499018     3.8479969108     0.3761371271
C     0.3405332494     3.9350563683     1.4120198825
C     -4.5262904585     -1.7330613312     -0.3289861192
C     -4.2744825273     -1.8294133103     1.1008078921
C     -4.8296559468     -0.5050202853     -0.8863034665
C     -4.3216571846     -0.6959002516     1.8889132623
C     -3.247540287     -0.4463444331     2.8286343751
C     0.3002686075     -1.6220436394     3.4126978178
C     1.5510358005     -1.0297469943     3.6605471059
C     -0.8899493932     -0.7728804385     3.450926618
C     -2.1507557407     -1.3243238442     2.9788636284
C     -2.1782204494     -2.5893217417     2.2365470106
C     -3.2427310092     -2.8021725399     1.3233277735
C     -1.838381001     1.5448118425     3.216266335
C     -3.0844681175     0.9768218785     2.9233596479
C     0.8293780031     2.56067051     3.2038771606
C     0.5916148593     1.2428750522     3.7026328436
C     -0.7428006838     0.6603166591     3.5969515426
C     1.7077111558     0.390022505     3.7758130024
C     -1.7954192413     -4.0321043552     -0.1929718082
C     -3.6178661692     -2.6463171448     -0.9938872164
C     -2.9899209391     -3.4200410429     0.0437047612
C     -0.9448401479     -3.3335903873     2.0270301633
C     0.284344807     -2.8964030208     2.6792883554
C     -0.831582314     -4.1366307045     0.863327807
C     0.4326241234     -4.3489935998     0.2235382381
C     1.5832746609     -4.0551258293     0.9015680128
C     1.5105229266     -3.4111349775     2.1964664795
C     3.6257135284     -0.4502161145     2.7351319817
C     2.7799467414     -1.5439757451     3.0958025534
C     2.7477453726     -2.6967584637     2.3373914413
C     4.6441430388     0.7742107622     0.897218226
C     4.3869734307     -0.4771850279     1.5207478126
C     2.0647104016     2.8862046818     2.5395966227
C     3.9805163418     1.9867163635     1.3587863059
C     3.1407849068     1.9735652605     2.5083314099
C     2.9820655547     0.7448803925     3.1992151003
C     3.5052006026     2.2241509215     -2.1216062125
C     4.1870344061     2.1383046365     -0.933920204
C     3.65761351     2.8033983182     0.2305694649
C     2.4333986909     3.5441672399     0.1729697255
C     1.742891331     3.6914375102     1.3947115428
C     4.6727891276     -0.2470053691     -1.3383887719
C     3.9430463378     -0.1626171313     -2.585313464
C     3.3931594838     1.0469659243     -2.9764281042
C     4.7943154868     0.878585235     -0.5201885633
C     3.491567338     -2.7640487288     1.1065720489
C     4.2844596319     -1.6685301893     0.6682783953
C     4.3889803013     -1.517400246     -0.7432389445


