90

 C     -3.1256098073     1.4922687499     -2.6595120913
C     -1.7933161179     1.7955647207     -3.0579272944
C     -1.1833395871     2.9942002203     -2.5189282077
C     0.2658825035     3.1432187566     -2.5529559676
C     0.8563942574     4.0816355284     -1.6615808844
C     2.2155475933     3.967958097     -1.222166002
C     1.1055416346     2.0490080838     -3.0485709716
C     2.4771503279     2.0723991341     -2.7227171257
C     3.0356939691     3.0188342579     -1.7897029102
C     -3.6214682781     0.145813518     -2.6225132363
C     -0.9419249386     0.6924677041     -3.5126725384
C     0.500217565     0.7664123712     -3.4218534997
C     -2.8570674166     -0.8697253694     -3.1258529456
C     -1.5245510782     -0.592511958     -3.6033262953
C     -2.8877201765     -2.1850005169     -2.5306423763
C     -3.0913938594     -3.4280311295     -0.4845729702
C     -3.6182567747     -2.4177486246     -1.3274450574
C     3.0958326483     3.4120789209     1.0009607426
C     4.0517365651     2.5148538     0.3888747907
C     2.2530606934     4.1854867032     0.2187782716
C     4.0297042533     2.3289793467     -0.9900759067
C     4.193449801     1.0065776222     -1.5346937229
C     4.5452934101     -0.0964808799     -0.7203348462
C     4.215366222     -1.3758142052     -1.2381096004
C     -0.7655057061     -1.781804383     -3.412692111
C     0.6161027127     -1.7518640974     -3.236207135
C     1.2774574763     -0.4564614946     -3.3311768087
C     2.6624857651     -0.389491808     -2.9043759111
C     3.2365102891     0.8587734678     -2.5965413929
C     3.2821534653     -1.5184834148     -2.3152546493
C     0.3747185739     3.8348328013     1.8132993331
C     1.2149785046     2.8798072161     2.5421971145
C     0.92426839     4.4517701989     0.6610734742
C     2.5602962473     2.7585668773     2.1633374132
C     3.2671498987     1.5084534475     2.324623081
C     3.2243718795     -0.8688796703     2.6056779046
C     2.6464511167     0.3783279532     2.9104779473
C     1.2590694928     0.4427650456     3.3299720796
C     0.5958625597     1.7369559553     3.2315180343
C     -0.7867121791     1.7643730161     3.400726882
C     4.541281122     0.0887765059     0.7363893002
C     4.2062852443     1.3674988465     1.2524120825
C     4.1871635445     -1.0149264835     1.5488863752
C     0.1071964963     4.5886235029     -0.5348042419
C     -1.6348133791     2.7559657071     2.7476042159
C     -1.0797052824     3.721013079     1.8849211567
C     -1.8886039501     4.0897457186     0.7704747698
C     -1.2413760583     4.415836027     -0.4832324243
C     -2.8750652504     0.8484758064     3.1028752686
C     -2.9049819315     2.1636972522     2.5075034322
C     -3.6295825296     2.3951127356     1.300468242
C     -3.1001197567     3.4063543425     0.4603761751
C     -3.6349433912     -0.1684580186     2.5955214461
C     -1.5445779291     0.5736955658     3.5873627641
C     -0.9591329547     -0.7102189503     3.4997802495
C     0.4835944572     -0.7815271826     3.4165529041
C     -3.7532029879     2.1649831168     -1.5559181461
C     -1.9168070119     3.7393812733     -1.5529561912
C     -3.1402592     3.2493436175     -0.9890426697
C     -4.4495672312     1.1914334294     -0.7277614785
C     -4.416063111     0.0328679133     1.3790377841
C     -4.3678061166     1.2756449166     0.6930404716
C     -4.4086259636     -0.0569467465     -1.4101656379
C     -4.4511220575     -1.2155822622     0.696432423
C     -4.3617148302     -1.2996364595     -0.7239186793
C     -3.7573572857     -2.1878638349     1.5282527013
C     -1.9181081608     -3.7589102895     1.5349690257
C     -3.1394572532     -3.2710990447     0.9646162903
C     3.0317503838     -3.0292940303     1.7978030616
C     2.4665729384     -2.0838919649     2.7278526005
C     1.0932200124     -2.0630119054     3.0464712149
C     2.216351278     -3.9799229114     1.2259651659
C     0.8551103166     -4.0960882966     1.6582051488
C     0.258191645     -3.1587558854     2.5464491357
C     -1.1911007532     -3.0123881074     2.5047836515
C     -1.8060989766     -1.8148703146     3.0405618899
C     -3.1368264294     -1.514008991     2.6351365875
C     3.1073306524     -3.4224201646     -0.9924990969
C     4.0583522329     -2.523449861     -0.3753875214
C     4.0287097368     -2.3376214591     1.0034244067
C     2.2618609336     -4.197373153     -0.2147664271
C     0.3913176196     -3.8501469408     -1.8191648852
C     1.2336589386     -2.8935848799     -2.5436234291
C     2.5767422678     -2.7698876516     -2.1576842542
C     0.9359080032     -4.466087023     -0.6640531747
C     -1.2358073256     -4.4341183234     0.4688192693
C     -1.8770091202     -4.1092076103     -0.78828212
C     -1.0629150929     -3.7389869865     -1.8984459335
C     -1.6152267563     -2.7749442262     -2.7640446869
C     0.1127883572     -4.6044453607     0.5274971772


