90

 C     -4.4988649367     -0.8535324964     1.2513944237
C     -3.7694896961     -1.8761897942     1.9785268946
C     -4.6896380809     -0.9718314441     -0.1163717763
C     -3.3573636127     -3.0247677042     1.3340781015
C     -2.0954616744     -3.6007869239     1.6702459881
C     -3.2417773779     2.6246675339     1.5074791062
C     -4.0400112737     1.5853826794     0.9817217808
C     -4.1452513524     0.4234790782     1.7988243216
C     -3.2026414821     0.1817000328     2.8581131286
C     -2.2692927803     1.141828539     3.2457484756
C     -2.4460256932     2.4364218319     2.67063166
C     -0.1445513361     3.0093449891     3.1347486707
C     -1.3436223096     3.3500480135     2.58034849
C     0.6190873372     -4.2084625885     1.3673325082
C     0.2508051951     -3.2676887881     2.3704501279
C     -1.1627847116     -2.9456976095     2.524378356
C     -1.5557068335     -1.6790450444     3.1257232807
C     -2.880868378     -1.2254278279     2.9004551584
C     0.8686525506     -1.019789467     3.3726443253
C     -0.535951157     -0.6955048492     3.5153320896
C     -0.943415622     0.6941527292     3.666321873
C     0.056667786     1.6873113849     3.7190197846
C     -4.1772990862     1.462236236     -0.4721205951
C     -4.5230162599     0.1827933904     -0.9723468201
C     -2.5644897631     3.5864267099     0.6485609959
C     -2.6190847332     3.4552742559     -0.7563411677
C     -3.4228876322     2.3748061563     -1.3403496846
C     -1.4799369111     3.9540900438     -1.4580142482
C     -0.2845240187     4.3589078902     -0.7902436344
C     -0.1781217545     4.3400144023     0.617689126
C     -1.3851674274     4.0431925593     1.3149331561
C     -1.065389109     3.3498664549     -2.7018903212
C     -1.7831876866     2.3120394797     -3.2264655906
C     -3.0152184167     1.8879663511     -2.6071571732
C     -3.1787112299     0.5142388389     -2.9667539751
C     -3.9461331122     -0.3128201667     -2.1963350208
C     0.3679876672     3.3320006338     -2.7802819959
C     1.0536431006     2.208914977     -3.330214406
C     2.3806490707     2.0605416798     -2.913558926
C     2.120966344     3.7070881869     -1.0725098535
C     0.8581569118     4.0058607419     -1.6252560582
C     2.9373331098     2.8351842933     -1.8483847891
C     2.2862671251     3.7455905097     0.3833485623
C     1.0927371022     3.4375875394     2.5221776841
C     1.1203740591     4.0215702859     1.2310852451
C     3.3434385391     2.9756025268     0.9224182078
C     -3.5533968132     -3.153887617     -0.1052409073
C     -4.1603206193     -2.134831255     -0.8125312285
C     -3.579538842     -1.6998508422     -2.0525736101
C     -1.9543881194     0.0194288029     -3.5647545822
C     -0.0140493534     -1.4512648266     -3.3213694464
C     -1.452388614     -1.2672548061     -3.2692530297
C     -2.3208173201     -2.1816617677     -2.5100762843
C     1.9415062944     -2.7600201947     -2.5636514518
C     0.5441579294     -2.6806651123     -2.747944175
C     -0.3022821744     -3.5768526693     -1.957585103
C     -1.730610826     -3.3066151898     -1.8093571208
C     -2.4007907918     -3.7996478496     -0.6536855178
C     0.2927496634     1.0186060933     -3.7347703299
C     -1.1016955788     1.139467599     -3.7644581968
C     3.0129654873     0.7624065855     -2.9261067174
C     2.2718335341     -0.4054620137     -3.2570506854
C     0.8526068041     -0.3151105209     -3.5803855177
C     2.7915924353     -1.6137584948     -2.7610665187
C     -1.6309541035     -4.2639137145     0.4743157445
C     -0.3167724636     -4.5493584246     0.3238240169
C     0.3273054111     -4.3693816123     -0.9591469107
C     3.6695394815     -2.8254954134     -0.9883919366
C     2.5414712747     -3.5565363999     -1.5250340741
C     1.7273668217     -4.2941332424     -0.6904398034
C     3.8569571291     -2.7573964252     0.3881406544
C     4.0290066076     0.7471690009     -1.9302690627
C     4.372217228     -0.4461439783     -1.2411544976
C     3.8553823472     -1.642672327     -1.79227195
C     4.4546373519     0.8811455518     0.8561351069
C     4.1661419957     2.0946554541     0.109833702
C     3.9656923478     2.0248011721     -1.2488198928
C     4.2485137958     -1.5107378892     0.9922713037
C     4.5864807221     -0.3768478924     0.2088595302
C     2.0851825438     2.5000498102     2.9448547322
C     3.4872262027     -1.3686083982     2.2028703985
C     3.1596343759     -0.1140683851     2.7318214388
C     3.8032794841     0.9996025472     2.1175302921
C     3.209098792     2.3124742207     2.1866882483
C     1.9092250821     -4.2036939246     0.7544635346
C     2.90082011     -3.3982347128     1.2701909029
C     2.5839103116     -2.484912188     2.3375033433
C     1.2639486723     -2.3265622195     2.8306293186
C     1.863136166     0.0449088524     3.3937111228
C     1.4242687674     1.3694783657     3.5927396735


