90

 C     2.8762722124     -2.2071345222     2.219569552
C     3.8123365931     -2.3541954591     1.1684265696
C     4.6084091978     -1.2611378646     0.7146495981
C     2.7141131076     -0.875345311     2.8176247806
C     3.5975302067     0.1397835969     2.4361331619
C     4.5756442002     -0.0529115992     1.39278231
C     -0.8995752349     -1.1908867382     3.6893647347
C     0.4771087243     -1.4693808203     3.5764523498
C     1.4221297134     -0.4552643532     3.360095635
C     -1.4131089157     0.112885357     3.5184663421
C     -0.474167777     1.2006808197     3.3164778003
C     0.9471748206     0.9201289219     3.2642129014
C     1.8677559398     1.9304604787     2.7452754451
C     3.1867707171     1.5289997997     2.423763758
C     -2.3620276415     2.5687122262     2.4669106833
C     -0.9843486901     2.4727508933     2.7854947094
C     -3.2356278327     1.4201025172     2.5127897172
C     -2.7953090788     0.204271806     3.0488576554
C     -3.4790340732     -0.9601568887     2.5816368491
C     3.3888298882     3.2439424112     0.7046160173
C     4.7233339743     1.1909224739     0.6768604096
C     3.9507020648     2.1842173157     1.3897219063
C     1.3553666521     3.1539363451     2.1436303658
C     2.1499606432     3.7900693095     1.1487628942
C     -0.0767379781     3.41886754     2.1528074573
C     3.3849916998     3.2393426621     -0.7567406266
C     3.9432798492     2.1753215839     -1.4381144184
C     4.7196612217     1.1865203974     -0.7230879262
C     4.5682366581     -0.0617925198     -1.4303950319
C     4.604578582     -1.2657268207     -0.7448611114
C     0.1811616076     4.5754221174     -0.0218255818
C     1.5113104794     4.3376952565     -0.024577566
C     2.1438026272     3.7826877172     -1.1977950112
C     -0.6037214071     4.2891228048     1.1557619132
C     2.3694787404     -3.9571677679     -0.0007654752
C     3.4634201097     -3.1404765968     -0.0062063597
C     3.8061546986     -2.3616072785     -1.1875689828
C     3.5846542424     0.1243512593     -2.4697875875
C     2.6992685184     -0.8931415223     -2.8402479121
C     2.8645866541     -2.2211492569     -2.2346928822
C     0.6201624746     -2.8273625515     -3.0106863541
C     1.7545428959     -3.16400673     -2.2632884475
C     1.537557471     -4.0602691042     -1.1712499365
C     -0.6098910679     4.2817321235     -1.1934486849
C     -0.0881363859     3.4052099676     -2.1877558941
C     1.3440044485     3.1403164626     -2.1844475486
C     1.8532453583     1.9130774079     -2.781077018
C     3.1739400343     1.5136257001     -2.4639863425
C     -0.4916279191     1.1797568916     -3.3353615768
C     0.9299703683     0.8995148772     -3.2888081772
C     1.404442659     -0.4764609752     -3.3785512955
C     0.4583201632     -1.4919019036     -3.5835699587
C     0.635964244     -2.8084168205     3.0111297536
C     1.7664091623     -3.1497778421     2.2599203767
C     1.5437094585     -4.0528874065     1.1746929759
C     0.2290448686     -4.3820180004     0.7373891005
C     -0.915201997     -3.996571293     1.4653349166
C     -0.659601313     -3.3077334721     2.6921899215
C     -2.838468769     -2.2482879294     2.6200652885
C     -1.610419764     -2.3627338447     3.2066369339
C     -3.161411776     -2.9914751292     -1.3848426447
C     -2.1745641782     -3.757460642     -0.723668037
C     -2.1707132225     -3.7528386989     0.7447058013
C     -3.154086565     -2.982695714     1.4062293876
C     0.2252067869     -4.3866146722     -0.7249952158
C     -0.6737042077     -3.3246392964     -2.681822441
C     -0.9228526326     -4.0057391464     -1.4493325344
C     -4.3133001779     -0.9313415008     -1.4067891443
C     -4.1070050283     -2.1760518708     -0.6795817448
C     -4.1033832411     -2.1717087035     0.7008406154
C     -4.1601338351     1.466126207     -1.409387834
C     -4.5686917093     0.2879236786     -0.7302838144
C     -1.627229007     -2.3828757207     -3.197197814
C     -3.2488308497     1.4042786234     -2.5185738739
C     -2.8113158743     0.1850974895     -3.0493055554
C     -3.4925571035     -0.9763563019     -2.571202433
C     -2.8521804504     -2.2647181007     -2.6049046434
C     -1.9613233112     4.2054846605     -0.7465841027
C     -2.8523993832     3.4018894898     -1.4242523844
C     -2.3750208242     2.5531386664     -2.4844955206
C     -0.999033951     2.4551511272     -2.8097049677
C     -1.4315972705     0.0907304625     -3.5255871674
C     -0.9189470936     -1.2140980721     -3.6909961639
C     -3.8842477416     2.6932597941     0.6902982817
C     -2.844978046     3.4107831051     1.4038649083
C     -1.9574853363     4.210082838     0.7164910149
C     -3.8879013815     2.6888887863     -0.7007406913
C     -4.3058821932     -0.9224492028     1.4212948591
C     -4.56483699     0.2925456449     0.7384950685
C     -4.152745512     1.474986351     1.4080317151


