32
0 1
C        2.978974    0.201398   -0.648066 
C        2.749520   -1.227167   -0.387638 
C        2.383683   -1.332996    1.042612 
C        2.684448    0.932245    0.534937 
C        2.232975   -0.027281    1.563441 
C        1.773696    2.012459    0.192512 
C        1.986161    0.627430   -1.696496 
C        1.355309    1.788813   -1.264038 
C        1.634412   -1.648961   -1.140562 
C        1.153334   -0.538649   -2.020860 
C        1.048690   -1.995566    1.107108 
C        0.633194   -2.287654   -0.234170 
C        0.873852    0.105204    2.149735 
C        0.180012   -1.208725    1.945285 
C        0.623080    2.222420    0.912583 
C        0.144899    1.270247    1.943316 
C       -0.090234    1.955753   -1.345554 
C       -0.532841    2.434788   -0.038616 
C       -0.202480   -0.365754   -2.203791 
C       -0.862230    0.949721   -1.958138 
C       -0.729463   -2.221415   -0.539789 
C       -1.153797   -1.397432   -1.716138 
C       -1.203884   -1.266015    1.699253 
C       -1.664916   -1.962652    0.512224 
C       -1.307459    1.189910    1.795403 
C       -1.701590    1.970944    0.546373 
C       -1.986755   -0.018137    1.794050 
C       -2.209140    0.682238   -1.466557 
C       -2.392291   -0.814956   -1.453543 
C       -2.809402   -1.181695   -0.076383 
C       -2.620171    1.170474   -0.208751 
C       -2.969582   -0.018990    0.660259 
