32
0 1
C       -2.815533    0.649815    0.302686 
C       -2.815537   -0.649795   -0.302699 
C       -2.139916   -1.578220    0.534462 
C       -2.043951    0.534001    1.598202 
C       -1.565735   -0.850733    1.703045 
C       -1.146090    1.589013    1.644752 
C       -2.139903    1.578236   -0.534471 
C       -1.247089    2.351174    0.313230 
C       -2.043947   -0.533987   -1.598209 
C       -1.565719    0.850744   -1.703050 
C       -1.247106   -2.351168   -0.313233 
C       -1.146095   -1.589004   -1.644757 
C        0.020413   -2.655581    0.096878 
C       -0.229903   -1.060504    2.048027 
C        0.531012   -2.146004    1.374948 
C        0.268503    1.396897    1.926291 
C        0.713052    0.083575    2.196071 
C        0.020433    2.655580   -0.096877 
C        1.014102    2.205823    0.969593 
C       -0.229887    1.060507   -2.048025 
C        0.531040    2.145997   -1.374946 
C        0.268502   -1.396899   -1.926286 
C        1.014090   -2.205833   -0.969588 
C        0.713063   -0.083580   -2.196066 
C        1.847134   -1.719050    1.164188 
C        2.002987   -0.330008    1.645796 
C        2.150266   -1.719780   -0.310362 
C        2.150278    1.719765    0.310370 
C        1.847155    1.719046   -1.164182 
C        2.003000    0.329991   -1.645794 
C        2.640691    0.420033    0.641877 
C        2.640690   -0.420053   -0.641870 
