32
0 1
C        0.788898   -2.822765   -0.000026 
C        1.992294   -2.149681    0.000022 
C        2.026322   -1.239574    1.187944 
C       -0.004446   -2.375425    1.187952 
C        0.700044   -1.251556    1.802717 
C       -1.338948   -2.247857    0.782299 
C       -0.004401   -2.375394   -1.187951 
C       -1.338986   -2.247838   -0.782293 
C        2.026375   -1.239540   -1.187960 
C        0.700005   -1.251569   -1.802731 
C        2.616178   -0.035641    0.782290 
C        2.616177   -0.035668   -0.782303 
C        2.059417    1.183854    1.187938 
C        0.000013   -0.000001    2.053082 
C        0.733869    1.232027    1.802721 
C       -2.086649   -1.135055    1.187964 
C       -1.433883    0.019524    1.802726 
C       -2.086675   -1.135128   -1.187941 
C       -2.857826   -0.650535    0.000030 
C       -0.000013    0.000001   -2.053086 
C       -1.433910    0.019561   -1.802723 
C        2.059338    1.183892   -1.187967 
C        2.050138    2.094588   -0.000021 
C        0.733875    1.232013   -1.802728 
C        0.060351    2.374620    1.187961 
C        0.865532    2.800217    0.000021 
C        0.060274    2.374675   -1.187945 
C       -2.054949    1.191574    1.187950 
C       -2.839035    0.728177   -0.000003 
C       -2.054957    1.191497   -1.187955 
C       -1.277218    2.283493    0.782303 
C       -1.277204    2.283512   -0.782287 
