56
Modified xyz file
 C            1.54025143       -0.01900254        4.12393489
 C            0.71249658       -1.20952368        4.06886601
 C            1.44729100       -2.21836100        3.33017437
 C            2.64279495       -0.20547824        3.19392457
 C            2.60518623       -1.57115479        2.72681763
 C            2.57125593        0.85598694        2.21238542
 C            0.74416764        1.09717197        3.64248517
 C            1.50225839        1.76148210        2.60473323
 C           -0.60435855       -0.81765864        3.59605626
 C           -0.57105858        0.60545257        3.29370779
 C           -1.29677607       -1.66496926        2.74275758
 C            0.76166889       -2.95204257        2.28020252
 C           -0.61315821       -2.79719088        2.12330657
 C            2.54406164       -1.81420582        1.29687820
 C            1.61821520       -2.91567739        1.10635194
 C            2.71925663        0.57088309        0.85418710
 C            2.52243758       -0.74295728        0.39530580
 C            2.47481609        1.62942720       -0.01317820
 C            0.80850569        2.39925599        1.58293405
 C            1.52852043        2.64464356        0.41940484
 C           -1.14327679        1.07161180        2.11145090
 C           -0.57125121        2.17929742        1.47439409
 C           -2.16853483       -1.08468686        1.73883812
 C           -2.04673781        0.26450519        1.41023688
 C           -1.20661962       -3.00236416        0.81009914
 C           -2.30783128       -2.06045836        0.67552494
 C            1.05937096       -3.09266416       -0.14887381
 C           -0.38193819       -3.25806251       -0.28106960
 C            2.04968963       -0.97387341       -0.90611854
 C            1.47960722       -2.20920062       -1.21830404
 C            2.22031844        1.37183923       -1.41442721
 C            1.95281197        0.07314978       -1.82736747
 C            0.84237639        3.15328597       -0.75239155
 C            1.40544601        2.47196039       -1.91160826
 C           -1.26771680        2.77022105        0.42331181
 C           -0.52527378        3.37503514       -0.67162445
 C           -2.58184266        0.71991402        0.20318997
 C           -2.38417340        2.04871396       -0.15927965
 C           -2.68389913       -1.61504484       -0.58318942
 C           -2.98408563       -0.20446800       -0.76445413
 C           -0.75644197       -2.76301677       -1.59868571
 C            0.45775036       -2.28334558       -2.24406011
 C           -1.94508558       -2.05712698       -1.75733708
 C            1.28646013       -0.13118086       -3.03747101
 C            0.38257741       -1.25930725       -3.17461883
 C            0.63827312        2.28877702       -3.05689046
 C            0.66922116        0.99695741       -3.71803809
 C           -1.33744910        3.27546703       -1.87048521
 C           -2.48433531        2.43781420       -1.55754080
 C           -0.73385640        2.77015679       -3.09027945
 C           -2.80150789        0.09243752       -2.17671866
 C           -2.02467617       -0.99898709       -2.75435975
 C           -0.91621449       -0.72481840       -3.54988256
 C           -0.70052566        0.62458418       -4.04209595
 C           -2.57561812        1.40546668       -2.57412907
 C           -1.57284388        1.69132975       -3.58698072
