56
Modified xyz file
 C            1.25586832       -0.08281026        3.54958777
 C            2.46907828       -0.36510770        2.82186566
 C            2.39723154       -1.73982936        2.34671063
 C            0.43596014       -1.28490623        3.54715446
 C            1.11615414       -2.29132601        2.75356756
 C           -0.91952288       -0.89858374        3.18775076
 C            0.42461645        1.01485147        3.10462244
 C           -0.95285675        0.55278582        3.08977856
 C            0.85298442        1.86204145        2.08645226
 C            2.80808435        0.46831808        1.68322576
 C            1.96563757        1.51470832        1.29474635
 C            2.74340970       -1.72668027        0.93453726
 C            3.32666061       -0.42549049        0.66540608
 C            1.85904537       -2.28506831        0.01102580
 C            0.38083082       -3.02452928        1.83259422
 C            0.88148705       -3.16259580        0.47277412
 C           -1.63079395       -1.65645807        2.26174498
 C           -1.05678418       -2.81694088        1.73673380
 C           -2.72254917       -1.06844217        1.62250208
 C           -1.85571629        1.15747156        2.21717217
 C           -2.87366256        0.37935151        1.66509130
 C           -0.09078347        2.75743096        1.59894762
 C           -1.49343047        2.36610756        1.61223701
 C            0.16548267        3.47229134        0.37022604
 C            2.12100127        2.04424631        0.00350412
 C            1.25978283        3.03304815       -0.46497154
 C            3.35845131        0.02100668       -0.64097039
 C            2.93830529        1.38290344       -0.91377622
 C            1.77807898       -1.74124451       -1.28108727
 C            2.74333150       -0.80420618       -1.66294342
 C            0.63743469       -1.95221416       -2.08100651
 C           -0.25167566       -3.46707113       -0.37056091
 C           -1.45880746       -3.28619309        0.42234326
 C           -0.41093296       -2.72706555       -1.60078769
 C           -3.13718139       -1.52259052        0.30025613
 C           -2.39080669       -2.49044982       -0.35130336
 C           -1.75603268       -2.16949268       -1.62410758
 C           -3.50678475        0.79253080        0.42560136
 C           -3.57356188       -0.36414044       -0.45146391
 C           -2.07560055        2.76069528        0.33498699
 C           -1.04885404        3.43792343       -0.43151784
 C           -2.92844328        1.88957844       -0.32241134
 C            0.75604727        2.95574403       -1.82845777
 C           -0.69677446        2.92303690       -1.74315150
 C            2.60654871        1.43707785       -2.32842577
 C            2.51558371        0.06351596       -2.80364898
 C            1.40430456        2.13882265       -2.74436610
 C            0.32176898       -1.06000383       -3.10188657
 C            1.28251740       -0.07076647       -3.54029576
 C            0.61352666        1.22140289       -3.54331065
 C           -1.96553165       -0.92626199       -2.23112103
 C           -2.88622215       -0.03084760       -1.68611958
 C           -2.56198111        1.38818392       -1.64180847
 C           -1.40267503        1.84000026       -2.27283407
 C           -0.99002473       -0.43523465       -3.09686554
 C           -0.78122439        1.00147612       -3.19394675
