56
Modified xyz file
 C            1.40184886        0.04431179        4.24807879
 C            0.56583552       -1.14075209        4.21188534
 C            1.23109080       -2.13325386        3.38961763
 C            2.52486150       -0.18018063        3.35368760
 C            2.42844125       -1.52279251        2.83260193
 C            2.54434056        0.90740811        2.40375872
 C            0.62395909        1.15267343        3.71382243
 C            1.37557164        1.74032159        2.63699907
 C           -0.77069401       -0.72417652        3.83638074
 C           -0.70095826        0.67209479        3.41750588
 C           -1.55002773       -1.59319533        3.08656976
 C            0.48825291       -2.73834652        2.29613868
 C           -0.89276293       -2.59834997        2.25072928
 C            2.39006627       -1.69664151        1.39109339
 C            1.25244121       -2.54079754        1.07602741
 C            2.88415361        0.66326254        1.07840874
 C            2.66817282       -0.62258152        0.54139737
 C            2.71881358        1.75585869        0.23920345
 C            0.70574473        2.22239313        1.51525431
 C            1.52839312        2.56692491        0.45253173
 C           -1.31943240        1.05496939        2.22445322
 C           -0.60161358        1.77033850        1.24136215
 C           -2.61550553       -1.01344066        2.29608732
 C           -2.47065298        0.36681781        1.86632329
 C           -1.55072197       -2.59227489        0.95528726
 C           -2.76127943       -1.82336947        1.10259750
 C            0.59489073       -2.32179009       -0.13065660
 C           -0.80261681       -2.40760805       -0.20604776
 C            2.29529459       -0.75220604       -0.80541173
 C            1.28997322       -1.66819032       -1.14652815
 C            2.87956535        1.57296587       -1.18276365
 C            2.65818320        0.24788105       -1.70573629
 C            0.95156297        2.84891119       -0.83697288
 C            1.93333089        2.45749848       -1.83383900
 C           -1.14599837        1.92907038       -0.05721030
 C           -0.38425903        2.55152765       -1.07005243
 C           -2.94654608        0.43506847        0.50842239
 C           -3.10939727       -0.92900232        0.02547554
 C           -2.39781598        1.35940969       -0.36871649
 C           -1.44958363       -1.95691246       -1.36709661
 C           -2.63179623       -1.19735302       -1.24936347
 C            0.73464022       -1.66553655       -2.42247275
 C           -0.69347553       -1.89472768       -2.54069185
 C            1.93054753        0.40145902       -2.95395078
 C            1.45943536        1.78491527       -3.02517469
 C            1.10395091       -0.63211989       -3.37502923
 C           -0.79378135        2.49206147       -2.40470029
 C            0.15207483        2.03368002       -3.41720243
 C           -2.75442823        1.17849158       -1.70268696
 C           -2.88279669       -0.19089569       -2.17437791
 C           -2.08272457        1.93528821       -2.72538225
 C           -1.17172575       -1.13747975       -3.68414085
 C           -0.06952089       -0.32564231       -4.17670116
 C           -0.52322150        1.05052568       -4.24076622
 C           -2.31146856       -0.27152822       -3.49825114
 C           -1.93063197        1.07501670       -3.88977706
