56
Modified xyz file
 C            1.45812057        0.05913769        4.00933301
 C            0.67406327       -1.12641927        3.71189288
 C            1.37978410       -1.89249287        2.70164351
 C            2.58173237        0.09156486        3.08945637
 C            2.56498490       -1.13769651        2.31843494
 C            2.54729229        1.35478665        2.38008576
 C            0.62824165        1.21606203        3.72945933
 C            1.35105084        2.07101825        2.80498487
 C           -0.68489959       -0.70915357        3.43476138
 C           -0.69449068        0.74316044        3.34984408
 C           -1.41418571       -1.43460522        2.50797540
 C            0.65198191       -2.54478144        1.70679982
 C           -0.74155860       -2.44158666        1.69350231
 C            1.31888930       -2.90126826        0.53801270
 C            2.92704987       -1.11046567        0.97458380
 C            2.53934462       -2.19009173        0.18768036
 C            2.92323632        1.36997137        1.04210782
 C            3.22495207        0.11505395        0.36418432
 C            2.21789795        2.22399132        0.09736330
 C            0.61492674        2.79092787        1.87410386
 C            1.11680252        2.95292034        0.51758387
 C           -1.35179578        1.36672909        2.28855470
 C           -0.81599058        2.54853572        1.77474522
 C           -2.35151908       -0.73583382        1.64876361
 C           -2.29579951        0.65160062        1.54081306
 C           -1.46852587       -2.54091140        0.43426001
 C           -2.52219674       -1.53569646        0.44727558
 C            0.57065053       -3.13127808       -0.68873217
 C           -0.78141608       -2.79900156       -0.74795169
 C            2.59525145       -2.08340645       -1.25735850
 C            1.43780952       -2.77595036       -1.79740173
 C            2.95311826        0.32000628       -1.05415051
 C            2.16575247        1.53431640       -1.18205130
 C            2.65076591       -0.76595244       -1.85840740
 C            0.97962453        1.51698528       -1.91907231
 C           -0.03437714        3.06618766       -0.36118754
 C           -1.23022307        3.01550999        0.46801905
 C           -0.04340231        2.42481889       -1.60015211
 C           -2.91537905        1.25235493        0.44493141
 C           -2.39270735        2.50449903       -0.08262244
 C           -2.88404556       -0.90834280       -0.73972022
 C           -3.30501611        0.42359889       -0.68893302
 C           -1.34232012       -2.38949532       -1.96049914
 C           -2.48392807       -1.48499646       -1.94711463
 C            0.89254551       -1.96450778       -2.86365690
 C            1.54987263       -0.66514228       -2.80162126
 C            0.77077266        0.49319009       -2.85721069
 C           -0.47728540       -1.99551771       -3.06956004
 C           -2.42218312       -0.69164228       -3.16361777
 C           -0.41766566        0.43694148       -3.58179359
 C           -1.08665113       -0.84513310       -3.70864901
 C           -1.25051795        2.39320760       -2.29367830
 C           -2.48533481        2.44325022       -1.53026274
 C           -3.25500061        1.26287359       -1.87445171
 C           -1.44302724        1.43035077       -3.35442940
 C           -2.69507183        0.72781820       -3.09687022
