56
Modified xyz file
 C            1.11808458        0.10990080        4.12450258
 C            2.42923450       -0.19066899        3.58693870
 C            2.36348740       -1.51647906        2.99228567
 C            0.28345198       -1.06784761        3.93454972
 C            0.96886288       -1.92794546        2.99445283
 C           -1.04701226       -0.61128640        3.60958036
 C            0.37567667        1.24385519        3.59996801
 C           -1.01947285        0.84280920        3.60364211
 C            0.86918335        1.97831931        2.51577175
 C            2.99345203        0.70547823        2.60002095
 C            2.16059858        1.75209680        2.03217468
 C            3.07391285       -1.47556677        1.72561220
 C            3.49156056       -0.10239416        1.49869763
 C            2.54924647       -2.18431135        0.65576102
 C            0.37078575       -2.27250982        1.77988691
 C            1.20635913       -2.73491575        0.76974768
 C           -1.64054334       -1.02975710        2.35585378
 C           -0.91691999       -1.81108218        1.45141866
 C           -1.87281641        1.29028476        2.52085923
 C           -2.38533629        0.10647694        1.84830095
 C           -0.02487133        2.67868133        1.70632292
 C           -1.44616469        2.35372219        1.74298115
 C            0.32769629        2.92130693        0.31586588
 C            2.39492420        1.76598444        0.59438636
 C            3.11109089        0.55283094        0.25375130
 C            1.38189560        2.20787416       -0.24728499
 C            2.62813707       -1.60410587       -0.67142609
 C            2.64960233       -0.21654282       -0.80833236
 C            0.69279833       -2.88061967       -0.57667791
 C            1.71238710       -2.37447410       -1.48688891
 C           -1.36357457       -1.85724988        0.12132171
 C           -0.63846638       -2.58134603       -0.83612312
 C           -2.63510711        0.16309227        0.48364183
 C           -2.37981934       -0.97525536       -0.27811103
 C           -1.95277639        2.46197354        0.38686603
 C           -0.91116683        3.07235969       -0.42332493
 C           -2.68801244        1.40816350       -0.15127867
 C           -0.90984327        2.81905005       -1.78633760
 C            1.21007575        1.60440783       -1.49791260
 C            1.83729865        0.38028775       -1.77723621
 C            0.22232141        2.09985696       -2.35228710
 C            1.29561053       -1.83480179       -2.69115830
 C            1.41496835       -0.39437988       -2.86128461
 C           -1.02755483       -2.54817933       -2.17417338
 C           -0.02094916       -2.21229536       -3.16697911
 C           -2.90031344       -1.03520242       -1.56417594
 C           -2.24917043       -1.86829856       -2.54892257
 C           -2.97752055        1.45364318       -1.51332672
 C           -2.11511812        2.25445536       -2.36787291
 C           -3.25601775        0.21149622       -2.21388358
 C           -0.27360333        1.28482830       -3.44932264
 C            0.30587696        0.04642571       -3.69145566
 C           -0.53376397       -1.11338960       -3.96109652
 C           -1.96219148       -1.04123418       -3.71364790
 C           -1.72163715        1.43591037       -3.49920254
 C           -2.56883649        0.25656751       -3.49543872
