56
Modified xyz file
 C            1.33761188        0.09106979        3.96404331
 C            0.52459295       -1.09851335        3.79274609
 C            1.16125292       -1.93072594        2.78922306
 C            2.37034921        0.07041831        2.94127544
 C            2.25148921       -1.16379211        2.20339612
 C            2.28567795        1.30415722        2.20323673
 C            0.49167679        1.24536897        3.71430852
 C            1.12561055        2.04201113        2.68133982
 C           -0.84471944       -0.68111702        3.57290324
 C           -0.85965201        0.77443990        3.49300955
 C           -1.62190308       -1.42828960        2.69785559
 C            0.37133746       -2.69521398        1.93670263
 C           -1.02173642       -2.55047007        1.98412434
 C            0.96853163       -3.14210118        0.76199602
 C            2.38012929       -1.14795692        0.81505881
 C            1.98174782       -2.29996394        0.14164327
 C            2.51779952        1.29405591        0.83571410
 C            2.41206397        0.07998035        0.12559406
 C            2.20293564        2.47703108        0.18489332
 C            0.33901238        2.70548146        1.73857100
 C            0.97815254        3.15252779        0.58338342
 C           -1.62787697        1.40594361        2.52302610
 C           -1.03561000        2.45195593        1.69330702
 C           -2.53233115       -0.75818847        1.78056558
 C           -2.52537763        0.62460377        1.68595952
 C           -1.82430856       -2.76296023        0.78677241
 C           -2.60513002       -1.55261138        0.56661234
 C            0.14983045       -3.70902959       -0.29206071
 C           -1.27186092       -3.42319186       -0.30152078
 C            1.69772533       -2.24558170       -1.27850576
 C            0.70544516       -3.26906181       -1.56045667
 C            2.18044529        0.10179406       -1.26316135
 C            1.60425618       -1.00368070       -1.89587472
 C            2.30113276        2.53781202       -1.25249561
 C            2.32653554        1.28892025       -1.97538553
 C            0.21055894        3.38107220       -0.62941354
 C            1.15704943        3.29501176       -1.73172393
 C           -1.73089192        2.43596867        0.41295585
 C           -2.57047934        1.24779519        0.37550662
 C           -1.06627292        2.82874893       -0.74392405
 C           -2.58426510       -0.93174173       -0.68374504
 C           -2.59009176        0.46712988       -0.77906208
 C           -1.62208423       -2.98142830       -1.63952373
 C           -0.39995833       -2.93795771       -2.43013727
 C           -2.29552904       -1.70228944       -1.80853830
 C            0.73127685       -0.82532114       -2.98263551
 C           -0.37703807       -1.65996590       -3.10927432
 C           -1.69824909       -1.07368086       -2.96951087
 C            1.53173213        1.48587972       -3.16953572
 C            0.73978514        2.69514833       -2.97971057
 C            0.63153428        0.42783499       -3.57888538
 C           -1.51859970        2.33033050       -1.96820326
 C           -2.27963609        1.08769927       -1.98985614
 C           -1.81596985        0.29797420       -3.12165763
 C           -0.65328952        2.33788904       -3.13613036
 C           -0.69441805        1.00878073       -3.71479508
