56
Modified xyz file
 C            1.43954809        0.00403706        4.00223943
 C            0.62656968       -1.19083114        3.91050536
 C            1.31579906       -2.14042039        3.05084872
 C            2.56031327       -0.15158320        3.08910528
 C            2.46235803       -1.45687628        2.46821350
 C            2.59218976        1.02060898        2.23831526
 C            0.63324789        1.11495753        3.52430374
 C            1.41790938        1.82420489        2.54863369
 C           -0.72241532       -0.78041733        3.55486020
 C           -0.64912686        0.59952963        3.10143569
 C           -1.50597988       -1.67012011        2.84120559
 C            0.54612142       -2.99083538        2.26655802
 C           -0.90102371       -2.91432178        2.38710040
 C            0.86155300       -3.16211476        0.85352819
 C            2.71883812       -1.56874964        1.10621111
 C            1.90455231       -2.44953278        0.28301083
 C            2.96031944        0.89682127        0.89664659
 C            3.02398734       -0.37759674        0.31950384
 C            2.68290378        1.98482419        0.07038295
 C            0.77487710        2.42686394        1.48169274
 C            1.62795004        2.88826911        0.49656423
 C           -1.12174635        0.93489762        1.82933600
 C           -0.49612117        1.95439705        1.09409605
 C           -2.31520079       -1.16613462        1.74560695
 C           -2.05108269        0.09877208        1.20564240
 C           -1.47159641       -3.23129055        1.09321155
 C           -0.38941973       -3.29152730        0.12535917
 C           -2.54536271       -2.28660019        0.84891003
 C           -0.57144096       -2.63536107       -1.09200733
 C            1.70199645       -1.80583428       -1.00397132
 C            2.49671340       -0.59336044       -1.02510918
 C            0.43974390       -1.79423957       -1.58785431
 C            2.46046659        1.76243949       -1.34543268
 C            2.05543745        0.49680622       -1.76479692
 C            1.06067209        3.49498895       -0.67836491
 C            1.76648783        2.94214900       -1.82384762
 C           -1.01314457        2.31186629       -0.16299611
 C           -0.34627118        3.28550747       -0.91889971
 C           -2.49768701        0.38863232       -0.08691853
 C           -2.01063393        1.52053274       -0.75885905
 C           -2.84378575       -1.99713293       -0.46790139
 C           -1.89016757       -2.41545051       -1.48352480
 C           -3.14688474       -0.62468802       -0.80115340
 C           -2.15727034       -1.60459662       -2.65202048
 C           -3.13900891       -0.60604219       -2.24694521
 C            0.13994590       -0.79846433       -2.52761921
 C            0.93904716        0.35803132       -2.60519490
 C           -1.05821100       -0.87683473       -3.24063739
 C            0.79311187        2.78972972       -2.87907027
 C           -0.47023048        3.29547610       -2.36049649
 C            0.51507649        1.45611717       -3.36450924
 C           -2.38492268        1.74621494       -2.09233874
 C           -2.79201553        0.62447065       -2.90973333
 C           -1.65770718        0.32887022       -3.77112693
 C           -1.51270261        2.50419609       -2.96175624
 C           -0.85657678        1.52674487       -3.81994183
