56
Modified xyz file
 C            1.23771823       -0.02231293        3.77858398
 C            2.48400395       -0.24911982        3.07211959
 C            2.44114927       -1.60004015        2.54251636
 C            0.38680510       -1.18524554        3.56067065
 C            1.07057014       -2.06796920        2.64317527
 C           -0.92900675       -0.70569144        3.20567660
 C            0.45107591        1.15827341        3.46751831
 C           -0.93636061        0.73575685        3.40265472
 C            0.92745694        2.08320973        2.54318802
 C            2.85347927        0.63727533        1.98271428
 C            2.12999847        1.80095916        1.76580163
 C            3.05906375       -1.58423682        1.23179765
 C            3.23019249       -0.18654379        0.84580908
 C            2.57918891       -2.47560314        0.28466296
 C            0.42632353       -2.48968270        1.48143934
 C            1.21880424       -2.97742600        0.43821854
 C           -1.58253522       -1.23845256        2.09743710
 C           -0.90093765       -2.10558605        1.22762873
 C           -2.74596626       -0.59796401        1.66943681
 C           -1.85191649        1.49629084        2.68706491
 C           -2.93559379        0.79947835        2.01753202
 C           -0.01023208        2.78319476        1.67698225
 C           -1.36997663        2.53137514        1.77970362
 C            1.89457950        2.24498390        0.40477220
 C            0.59336351        2.89516773        0.36116380
 C            2.90176264        0.21432303       -0.45373478
 C            2.29296929        1.45893849       -0.67612788
 C            2.76194686       -2.14241299       -1.11223331
 C            2.91678008       -0.74415529       -1.46824473
 C            0.65602533       -3.15740971       -0.89008008
 C            1.62276774       -2.66213278       -1.85029718
 C           -1.50872073       -2.49903673        0.03443817
 C           -0.68703119       -2.89069656       -1.09632982
 C           -3.22572551       -0.77764624        0.31011831
 C           -2.63338288       -1.74332307       -0.48963254
 C           -3.24047742        1.51963640        0.79594895
 C           -2.17181732        2.47831925        0.56940940
 C           -3.52419569        0.53992916       -0.23826233
 C           -0.18095472        2.76363624       -0.78983717
 C           -1.56115546        2.51412367       -0.68501109
 C            1.74783639        1.75874819       -1.92585135
 C            0.49879933        2.50472122       -1.98053593
 C            2.14677766       -0.53033914       -2.67759895
 C            1.21240809       -1.64201693       -2.79811657
 C            1.70558308        0.74792842       -2.97047146
 C           -1.09563426       -2.08192294       -2.23863209
 C           -2.36851102       -1.46252962       -1.89397140
 C           -0.14383937       -1.37636227       -2.98269435
 C           -3.14741882        0.84068383       -1.54014052
 C           -2.27167609        1.97962706       -1.76360015
 C           -2.69818650       -0.22195716       -2.42458376
 C           -0.22067577        2.07957590       -3.16316536
 C            0.44595765        0.89603646       -3.67861939
 C           -0.50625914       -0.20007837       -3.63635125
 C           -1.62693468        1.77619360       -3.04372597
 C           -1.81826532        0.37950784       -3.41033382
