56
Modified xyz file
 C            1.48511876       -0.03226369        3.85402711
 C            0.67969649       -1.23412713        3.78319818
 C            1.29027523       -2.11874199        2.80515692
 C            2.47641410       -0.10784735        2.79371078
 C            2.25620132       -1.32959873        2.05509957
 C            2.42034516        1.13323094        2.06566092
 C            0.61718954        1.09587024        3.56063565
 C            1.27068525        1.88769871        2.54537065
 C           -0.70398046       -0.83358343        3.58832385
 C           -0.70537384        0.58655254        3.27065988
 C           -1.53369289       -1.68137294        2.86966043
 C            0.46602126       -2.99352115        2.11377296
 C           -0.97165317       -2.90871304        2.32655920
 C            0.67793216       -3.18092546        0.68922950
 C            2.15779971       -1.27179927        0.66417702
 C            1.54837748       -2.33671540       -0.00412765
 C            2.64104371        1.12506671        0.69557702
 C            2.44746756       -0.07362762       -0.02210577
 C            2.37129610        2.32955937        0.06394212
 C            0.49426261        2.53760642        1.59101990
 C            1.18931596        3.05280202        0.49825776
 C           -1.35243757        1.03142775        2.11885346
 C           -0.84173403        2.14124452        1.41851477
 C           -2.41330286       -1.12048461        1.85778367
 C           -2.36092454        0.23670341        1.55572953
 C           -1.62894242       -3.18232373        1.05972069
 C           -0.60722060       -3.52436849        0.09486224
 C           -2.51441471       -2.07304879        0.76142665
 C           -0.82574700       -3.19540079       -1.23295878
 C            1.51056561       -2.34644871       -1.39133415
 C            0.33226835       -2.88634661       -2.04797560
 C            2.38070108       -0.04565897       -1.42896332
 C            1.91733297       -1.16354415       -2.12210708
 C            2.44728366        2.40644554       -1.37135830
 C            2.43702106        1.16966141       -2.11523332
 C            0.47546798        3.48734262       -0.68850256
 C            1.33086591        3.21829386       -1.83323766
 C           -1.58134679        2.69140678        0.37202262
 C           -0.89104556        3.25774930       -0.77503591
 C           -2.98894655        0.64523653        0.38668325
 C           -2.73033263        1.97003948       -0.13120833
 C           -2.58883088       -1.58797772       -0.54502855
 C           -1.86409197       -2.22025562       -1.56163109
 C           -3.03208727       -0.27994546       -0.73651008
 C           -0.08218983       -1.94195328       -3.06557711
 C            0.98879746       -0.98515942       -3.23523803
 C           -1.39793772       -1.44631126       -2.70575788
 C            1.55799952        1.37195574       -3.25359803
 C            0.76847963        2.56532068       -2.99888255
 C            0.65053280        0.30286390       -3.61445973
 C           -1.46229397        2.66408994       -1.98026448
 C           -2.59993178        1.86463235       -1.57606214
 C           -2.62780713        0.45458349       -1.92468062
 C           -1.64175605       -0.07557523       -2.75271655
 C           -0.62972072        2.17752126       -2.98105478
 C           -0.70901552        0.77273453       -3.36402626
