56
Modified xyz file
 C            1.27484776        0.07701527        3.92038026
 C            2.48111306       -0.06262684        3.13040761
 C            2.49958334       -1.41527284        2.60424762
 C            0.43234160       -1.08039815        3.64886931
 C            1.15840201       -1.95630120        2.74908116
 C           -0.87118804       -0.59389135        3.23983800
 C            0.46372496        1.26073699        3.72984184
 C           -0.90819391        0.82357570        3.52818062
 C            0.78010523        2.16410151        2.63648441
 C            2.69942054        0.83527126        2.00800796
 C            1.74234622        1.80323426        1.69016229
 C            3.08389909       -1.36247919        1.27439527
 C            3.29746443        0.04225195        0.94819181
 C            2.57829810       -2.21791086        0.30284879
 C            0.51634815       -2.45174550        1.61742762
 C            1.30315082       -2.87399902        0.54688569
 C           -1.40546762       -1.03795131        2.03604384
 C           -0.82852316       -2.14005512        1.39446910
 C           -2.31291237       -0.22355154        1.34687568
 C           -1.49919348        1.70692024        2.54136770
 C           -0.48971606        2.69549084        2.18545725
 C           -2.28915593        1.16506840        1.52937093
 C           -0.55615457        3.28156191        0.93222152
 C            1.61509008        2.24874820        0.36801134
 C            0.54570221        3.06853078        0.00535077
 C            3.16343116        0.47105728       -0.36430970
 C            2.36869079        1.65546137       -0.64356997
 C            2.59593607       -1.81168589       -1.09230374
 C            2.90456098       -0.49604348       -1.42055025
 C            0.68826051       -3.14476657       -0.74206533
 C            1.49183155       -2.48505865       -1.76143211
 C           -1.48023841       -2.70967575        0.30439980
 C           -0.69676763       -3.14121582       -0.84148038
 C           -3.03360047       -0.76042664        0.28374787
 C           -2.69064629       -2.08569695       -0.19520558
 C           -3.31613319        0.06920081       -0.87508978
 C           -2.64196926        2.00051586        0.47066281
 C           -1.79051533        3.13945698        0.18082058
 C           -3.05947611        1.43116168       -0.80030467
 C           -0.01159494        2.95902352       -1.33673337
 C           -1.45373140        3.09051544       -1.22949063
 C           -2.29340595        2.08498468       -1.85382364
 C            1.78729808        1.50119597       -1.96901915
 C            2.15552200        0.18147831       -2.46659913
 C            0.52052460        2.02663137       -2.22473081
 C            0.87130473       -1.88130779       -2.84998426
 C            1.25758530       -0.53500282       -3.24699702
 C           -1.33547625       -2.62246780       -2.04117224
 C           -2.60476096       -2.03228131       -1.64627340
 C           -2.92802765       -0.67695169       -2.06271234
 C           -0.56807352       -2.00559316       -3.02414225
 C           -1.75433553        1.32497592       -2.88300338
 C           -0.32311075        1.39926500       -3.14487368
 C            0.07527546        0.13888988       -3.74670123
 C           -2.16223422       -0.06120396       -3.04728129
 C           -1.04745585       -0.78076015       -3.64420010
