56
Modified xyz file
 C            1.46749806        0.21313018        4.25941057
 C            0.68490594       -1.00886345        4.23648184
 C            1.43463159       -1.99424854        3.48147578
 C            2.55427448        0.05991797        3.30532829
 C            2.55041712       -1.31084154        2.84696176
 C            2.42527140        1.11751490        2.32016053
 C            0.61950620        1.28938022        3.78038098
 C            1.35832983        2.00188797        2.75797531
 C           -0.66140481       -0.67470565        3.79796779
 C           -0.67242118        0.72911515        3.41913810
 C           -1.35427159       -1.57930278        3.00937528
 C            0.73624284       -2.75043545        2.45779497
 C           -0.65144172       -2.73072697        2.44753737
 C            2.46420722       -1.56060184        1.42264757
 C            1.45036704       -2.57070568        1.19789518
 C            2.52479909        0.82441956        0.95880045
 C            2.54217577       -0.51061953        0.51972329
 C            2.15309619        1.82205660        0.05089479
 C            0.62560954        2.65241111        1.77927692
 C            1.18605210        2.74356300        0.44229543
 C           -1.25416414        1.12766011        2.21078375
 C           -0.77520418        2.28758637        1.61125691
 C           -2.22548395       -1.06525407        1.96987339
 C           -2.00133327        0.21343267        1.45271643
 C           -1.32363755       -3.07798810        1.21396331
 C           -2.44077171       -2.16152793        1.05838631
 C            0.73801675       -2.55031850       -0.00689380
 C           -0.56455043       -3.03793338       -0.02440752
 C            2.18630486       -0.77852355       -0.79493543
 C            1.15307833       -1.69756572       -1.04001486
 C            2.31752009        1.57860465       -1.30898017
 C            2.47266944        0.20127760       -1.72904978
 C            1.40982008        2.20409472       -2.25994899
 C            0.07264180        3.01744089       -0.44799187
 C           -1.13298834        2.58294015        0.24260001
 C            0.19663995        2.73136262       -1.80342645
 C           -2.33516663        0.49672212        0.10852463
 C           -2.02029448        1.75976400       -0.43381654
 C           -2.54350160       -1.85423048       -0.34271514
 C           -1.47795018       -2.55732928       -1.03808400
 C           -2.78959274       -0.54615082       -0.72992855
 C            0.37987288       -1.59544950       -2.21144184
 C           -0.97718018       -1.95334377       -2.18385515
 C            1.94818283        0.07712742       -3.07001077
 C            1.46139790        1.38925086       -3.46539631
 C            0.88066684       -0.87143112       -3.29888957
 C            0.25657051        1.18909738       -4.24109743
 C           -0.03433172       -0.23857018       -4.23565571
 C           -0.98197208        2.50673831       -2.51785343
 C           -2.14050310        1.98754601       -1.80230164
 C           -0.94452559        1.88286474       -3.82990374
 C           -2.80939972       -0.35684292       -2.10550495
 C           -1.89237673       -1.17130702       -2.88610482
 C           -1.45551017       -0.39447550       -4.02464503
 C           -2.75222468        0.98077297       -2.62974842
 C           -2.03856420        0.93161302       -3.89702503
