56
Modified xyz file
 C            1.11149578       -0.03587689        3.87155806
 C            2.36104778       -0.36730694        3.22840343
 C            2.28230106       -1.76513485        2.83160365
 C            0.28194808       -1.23180344        3.84435404
 C            0.88077249       -2.13336455        2.87953762
 C           -1.08139633       -0.79994604        3.63410680
 C            0.31277165        1.04038699        3.32156488
 C           -1.06486081        0.64885060        3.50206937
 C            0.66696092        1.62890039        2.10822275
 C            2.75400278        0.38010107        2.05105697
 C            1.86448734        1.27859053        1.46305346
 C            2.98665165       -1.89040878        1.57571576
 C            3.43403721       -0.55988720        1.19057013
 C            2.28063034       -2.44298207        0.43879540
 C            0.20315098       -2.41957546        1.68857215
 C            0.93838210       -2.79289031        0.54691950
 C           -1.80387202       -1.32043266        2.49250279
 C           -1.18595393       -2.20076114        1.61006356
 C           -2.00630035        1.00302617        2.45985025
 C           -2.58914483       -0.22814703        1.94514166
 C           -0.30808009        2.33555680        1.39661717
 C           -1.66432485        1.98875489        1.54404303
 C            0.10858567        3.09940852        0.30763175
 C            2.04972242        1.62978026        0.12002738
 C            1.31249755        2.69392751       -0.39438102
 C            3.23897098       -0.43254187       -0.23973224
 C            2.70807010       -1.69597586       -0.72953049
 C            2.70038615        0.74225258       -0.75137918
 C            1.88810054       -1.67782329       -1.85793967
 C            0.27955565       -3.09877373       -0.63716917
 C            0.75644263       -2.50314788       -1.87995262
 C           -1.86688144       -2.47332602        0.43116596
 C           -1.16409838       -3.09731503       -0.66504729
 C           -2.97676488       -0.27787937        0.60306378
 C           -2.75160377       -1.45319624       -0.11887852
 C           -2.53084843        2.12881292        0.46710950
 C           -3.13072351        0.92666949       -0.08805507
 C           -0.85508098        3.55047539       -0.67976953
 C           -2.19534740        3.01565111       -0.62543363
 C            1.04514651        2.77292169       -1.82226608
 C           -0.31375963        3.26205234       -1.99680129
 C            2.34629511        0.71905831       -2.09600327
 C            1.93840625       -0.55057471       -2.67912728
 C            1.51105926        1.76603586       -2.65376722
 C            0.85567842       -0.28484281       -3.60683499
 C            0.59484855        1.14515530       -3.59738645
 C           -0.41285217       -2.14469728       -2.67753294
 C           -1.59287061       -2.45817972       -1.89771325
 C           -2.50767413       -1.38525373       -1.55279805
 C           -0.40323139       -0.97486806       -3.42140904
 C           -2.91753253        0.96718619       -1.52665566
 C           -2.44965027        2.30076874       -1.86658956
 C           -1.28163358        2.44269006       -2.71264151
 C           -0.83500535        1.34003896       -3.42873188
 C           -2.36945786       -0.14179514       -2.16179435
 C           -1.43345643        0.03165543       -3.18799956
