56
Modified xyz file
C          1.28508       -0.21349        5.28946
C          0.42938       -1.32148        5.65263
C          0.79932       -2.46004        4.81660
C          2.15073       -0.66614        4.21675
C          1.89786       -2.08056        3.94751
C          1.98135        0.25799        3.10764
C          0.48240        0.90123        4.78134
C          1.04593        1.31383        3.48642
C         -0.91417       -0.92807        5.28946
C         -0.92000        0.44556        4.78134
C         -0.31248       -2.79874        3.94751
C         -1.34843       -1.80308        4.21675
C          1.57311       -2.46078        2.56146
C          0.17374       -2.91547        2.56146
C          1.99414       -0.19104        1.70290
C          1.91168       -1.58291        1.40419
C          1.62775        0.71505        0.69076
C          0.20828        1.96439        2.40698
C          0.83223        1.79721        1.00491
C         -1.61843        0.44812        3.48642
C         -1.75459       -0.95589        3.10763
C         -1.32314        1.46680        2.40698
C         -0.61617       -2.40426        1.40419
C         -1.50100       -1.32668        1.70290
C          1.37492       -1.87997        0.11786
C         -0.00732       -2.32909        0.11786
C          1.80496        0.35440       -0.66225
C          1.71372       -1.05012       -0.98792
C          1.50277        1.34454       -1.73469
C          0.02981        2.51100       -0.08853
C          0.62759        2.35198       -1.47571
C         -1.72966        0.96481        1.00491
C         -1.73718       -0.37828        0.69076
C         -1.50005        2.01392       -0.08853
C         -0.76918       -1.85686       -0.98792
C         -1.66855       -0.77421       -0.66225
C          1.17564       -1.30386       -2.28244
C         -0.18472       -1.74587       -2.28244
C          1.81974        0.96301       -3.12214
C          1.60481       -0.45128       -3.43440
C          1.38377        1.78094       -4.25147
C         -0.15879        2.92789       -2.61739
C          0.32854        2.77335       -4.00064
C         -1.89019        1.53390       -1.47571
C         -2.00607        0.20445       -1.73469
C         -1.59251        2.46205       -2.61739
C         -1.03307       -1.30838       -3.43440
C         -2.03824       -0.29053       -3.12214
C          0.92392       -0.47459       -4.73513
C          0.93518        0.87595       -5.29298
C         -0.46851       -0.92702       -4.73513
C         -0.78335        2.41090       -4.86279
C         -1.89593        2.05058       -4.00064
C         -2.16630        0.62745       -4.25147
C         -0.40888        1.25840       -5.67139
C         -1.27145        0.15897       -5.29298

