56
Modified xyz file
 C            1.43378471        0.09363405        4.15435765
 C            0.61233147       -1.08031870        3.91763803
 C            1.41038989       -2.01231264        3.15427044
 C            2.57450654        0.01611453        3.25612296
 C            2.59919779       -1.31066684        2.68811643
 C            2.50261099        1.14372275        2.35280869
 C            0.65176342        1.25825972        3.77900526
 C            1.37616058        1.97550317        2.74713506
 C           -0.65452686       -0.63554366        3.35859629
 C           -0.69255341        0.81456853        3.48205204
 C           -1.15211119       -1.24304543        2.19829834
 C            0.80569582       -2.63302196        1.99751446
 C           -0.53886558       -2.40847710        1.71154197
 C            2.64641289       -1.44796976        1.24109295
 C            1.75304645       -2.53485163        0.90144467
 C            2.73851856        0.96833339        0.99282985
 C            2.64948963       -0.31871350        0.42699610
 C            2.46906072        2.07205966        0.19511381
 C            0.65856972        2.62818615        1.74334200
 C            1.32286726        2.89684857        0.54663834
 C           -1.41574224        1.53508511        2.54955955
 C           -0.73807056        2.55053858        1.74626036
 C           -2.05125100       -0.53106367        1.38851500
 C           -2.29614201        0.81485996        1.65460065
 C           -2.51914755       -1.08569503        0.19350608
 C           -0.99699747       -2.96450787        0.52447101
 C           -2.13440229       -2.37488708       -0.14902022
 C            1.23580003       -2.61390558       -0.38594589
 C           -0.00579903       -3.23602528       -0.50172338
 C            2.26701660       -0.47384215       -0.91151649
 C            1.59366232       -1.63426109       -1.32464750
 C            2.49775459        1.93035768       -1.24268782
 C            2.39569187        0.59876058       -1.79122927
 C            0.56737122        3.13640732       -0.67274566
 C            1.40092299        2.71418506       -1.78611440
 C           -1.48017125        2.66775604        0.49595007
 C           -2.58135603        1.71288777        0.55579774
 C           -0.79758415        2.86867817       -0.70341212
 C           -3.10961993       -0.26626595       -0.77482315
 C           -3.08195629        1.18016007       -0.61916415
 C           -2.92677450       -0.56000346       -2.19092131
 C           -2.03170009       -2.74276788       -1.55364479
 C           -0.68868214       -3.25752906       -1.77692212
 C           -2.29896227       -1.73990638       -2.56705199
 C            1.05471818       -1.68905896       -2.61496101
 C           -0.10327436       -2.52572070       -2.87728623
 C           -1.13947167       -1.67960212       -3.44644655
 C            1.52609907        0.68399118       -2.95019294
 C            0.80029712        1.94369183       -2.85908026
 C            0.86707525       -0.46114888       -3.36895752
 C           -0.53682704       -0.39019641       -3.75111204
 C           -1.39674410        2.49470820       -1.90756046
 C           -2.64395417        1.75187387       -1.87754649
 C           -2.55487869        0.67889170       -2.85337110
 C           -0.58250319        1.94840274       -2.98624009
 C           -1.26074660        0.77284241       -3.50925084
