56
Modified xyz file
 C            1.58707849        0.04334905        3.81991698
 C            0.76635363       -1.14852519        3.72322224
 C            1.31876067       -2.00329082        2.68616493
 C            2.64079286       -0.06408851        2.82893915
 C            2.45256569       -1.30379585        2.09548513
 C            2.66548984        1.17568301        2.08211961
 C            0.75575105        1.17574117        3.44929398
 C            1.43246293        1.88978361        2.38245385
 C           -0.61165496       -0.72194682        3.58881665
 C           -0.58428971        0.67979661        3.19987208
 C           -1.47926201       -1.56815189        2.92139471
 C            0.43512516       -2.69472053        1.85963756
 C           -0.92117770       -2.70084162        2.19501612
 C            0.83090234       -2.99116577        0.55437693
 C            2.60778700       -1.29929074        0.71022564
 C            1.93709961       -2.25738049       -0.04280375
 C            3.08433215        1.12690330        0.76234282
 C            3.11632312       -0.16233065        0.07824194
 C            2.53110238        2.08721205       -0.17380322
 C            0.67741020        2.38781278        1.32308706
 C            1.34119684        2.73740981        0.14451010
 C           -1.23058934        1.07883467        2.03123541
 C           -0.70061635        2.13502756        1.28983956
 C           -2.47413126       -0.98506448        2.04417406
 C           -2.21950607        0.26141622        1.46838926
 C           -1.91397867       -3.09391594        1.20902120
 C           -2.95385575       -2.07433117        1.21665783
 C           -0.15792118       -3.23267836       -0.48917792
 C           -1.50553101       -3.29706274       -0.16720060
 C            1.60057631       -1.98757851       -1.43343611
 C            0.27136245       -2.52375524       -1.68831557
 C            2.82184924        0.08109690       -1.32927308
 C            2.69739854        1.52347724       -1.50076323
 C            1.97199366       -0.78282434       -2.01938207
 C            1.93196830        2.02988020       -2.54189511
 C            0.63684559        3.37573843       -0.87089403
 C            0.99003866        3.10047259       -2.25552042
 C           -1.46480806        2.66065971        0.25873042
 C           -0.80892711        3.42323677       -0.78812563
 C           -2.77002781        0.58466351        0.21770286
 C           -2.45637281        1.80733838       -0.36820399
 C           -3.30867126       -1.79417693       -0.15502763
 C           -2.46567726       -2.61460437       -1.01232161
 C           -3.20913238       -0.42932107       -0.63231142
 C           -0.63865710       -1.78006227       -2.44349830
 C           -1.98590735       -1.76811549       -2.09205798
 C           -2.66985498       -0.48884860       -1.97862981
 C            1.21991942       -0.30607645       -3.08905293
 C            1.28350274        1.10137684       -3.44784996
 C           -0.16317304       -0.73400882       -3.22824600
 C           -0.23784433        2.83029880       -2.98662863
 C           -1.34549408        2.98245306       -2.06612122
 C           -2.21625619        1.84869944       -1.80400099
 C           -2.06117926        0.64737225       -2.50208857
 C           -0.07698818        1.56623390       -3.67346793
 C           -0.97450367        0.46598578       -3.36077037
