56
Modified xyz file
 C            1.46706645        0.07336187        3.85615493
 C            0.68330740       -1.14463142        3.77375628
 C            1.21824446       -1.95362479        2.69522342
 C            2.47839563        0.02134357        2.81495658
 C            2.33676947       -1.22525103        2.10615872
 C            2.37637597        1.23465882        2.04999625
 C            0.58042023        1.18541526        3.55306565
 C            1.15470398        1.91579597        2.45238448
 C           -0.70921631       -0.76284552        3.71322844
 C           -0.75240840        0.65911617        3.39161963
 C           -1.58290919       -1.60687201        3.04833197
 C            0.33846872       -2.63650541        1.85192313
 C           -1.04343932       -2.54982028        2.06965237
 C            0.79662203       -3.00259374        0.58685934
 C            2.48259692       -1.24094801        0.72243564
 C            2.00236448       -2.37237598        0.07618681
 C            2.65811380        1.20385788        0.69250339
 C            2.62772007       -0.03032455        0.00618167
 C            2.28579705        2.35084652        0.01035085
 C            0.32693394        2.40335947        1.44401975
 C            0.99092959        2.92672110        0.33876659
 C           -1.53603235        1.08478571        2.31799326
 C           -0.95545997        1.84223950        1.27487373
 C           -2.77313971       -1.01413633        2.46868498
 C           -2.72419069        0.39053520        2.10488683
 C           -1.94481608       -2.55675830        0.92447133
 C           -3.10257310       -1.76028800        1.26868839
 C           -0.14447035       -3.06824763       -0.51973277
 C           -1.40323677       -2.50474315       -0.35865355
 C            1.93861099       -2.40585394       -1.36370390
 C            0.59831413       -2.83892759       -1.73781963
 C            2.60482042       -0.04246097       -1.40706795
 C            2.22470450       -1.19450305       -2.09415975
 C            2.45445588        2.40466251       -1.41702542
 C            2.61553913        1.15620625       -2.12296007
 C            0.28323029        3.11366634       -0.90618211
 C            1.28581461        3.07343279       -1.96201309
 C           -1.62102583        1.98141820        0.03740268
 C           -0.93809518        2.47607905       -1.07863068
 C           -3.42397105        0.52408490        0.85168784
 C           -3.60132485       -0.81536763        0.30043529
 C           -2.83598473        1.33568833       -0.18732868
 C           -1.89078831       -1.58384359       -1.30879015
 C           -3.01487112       -0.80228397       -1.02363249
 C           -3.00522313        0.58983538       -1.41951810
 C            0.08445105       -1.88481996       -2.69324694
 C            1.22225731       -1.09760645       -3.14216396
 C           -1.13023867       -1.25072160       -2.44240756
 C            1.82645898        1.25894885       -3.34256133
 C            0.96770800        2.42832235       -3.21859644
 C            0.99876814        0.13276145       -3.74213114
 C           -1.35681244        2.09845816       -2.35913202
 C           -2.22748744        0.94862221       -2.50074211
 C           -1.42815228       -0.08012194       -3.14326923
 C           -0.39602243        2.00265765       -3.44542287
 C           -0.36807394        0.60959533       -3.86598833
