56
Modified xyz file
 C            1.46651883       -0.00134241        3.89989252
 C            0.61648824       -1.15432338        3.66365733
 C            1.25245662       -1.97183887        2.64817471
 C            2.48852886        0.01213400        2.86678849
 C            2.43337529       -1.25835183        2.17860065
 C            2.31168989        1.21144212        2.07784372
 C            0.65589773        1.18769479        3.72283956
 C            1.33454294        2.04190957        2.76588855
 C           -0.73245813       -0.68150413        3.42689495
 C           -0.70615227        0.77355622        3.42312936
 C           -1.50560992       -1.34301800        2.48941768
 C            0.46463049       -2.63719059        1.70686167
 C           -0.91328310       -2.39972253        1.67416724
 C            1.09772975       -3.10176788        0.55496468
 C            2.70752210       -1.30012516        0.81763048
 C            2.35443355       -2.48095752        0.17676539
 C            2.24901661        1.08209768        0.69059696
 C            2.70059325       -0.09731220        0.08764610
 C            1.51234297        2.00759540       -0.05850154
 C            0.55111563        2.89388059        2.00831590
 C            0.85625040        3.04338884        0.59938852
 C           -1.40828957        1.48688736        2.44915591
 C           -0.89016501        2.73020427        2.07423560
 C           -2.39513798       -0.57470251        1.64017310
 C           -2.30950992        0.81427774        1.60543943
 C           -1.62515514       -2.42044508        0.40282870
 C           -2.56463428       -1.30776300        0.39538997
 C            0.33439867       -3.29036128       -0.66822186
 C           -0.94660247       -2.75501825       -0.76402714
 C            2.50135583       -2.59502626       -1.25711057
 C            1.26060500       -3.14642724       -1.78009643
 C            2.80513586       -0.12517607       -1.30275033
 C            2.81146742       -1.39761940       -2.00370526
 C            1.23397136        1.75191003       -1.40701019
 C            2.00478746        0.80639662       -2.08017943
 C            0.04288732        2.21541731       -1.98658102
 C           -0.32447185        3.62227435       -0.00725199
 C           -1.42774147        3.43223754        0.92804077
 C           -0.75316690        3.12836957       -1.29838891
 C           -2.90563473        1.47269992        0.53009407
 C           -2.52329143        2.83210859        0.20492640
 C           -2.17746152        2.86209175       -1.20372628
 C           -2.79455392       -0.60965296       -0.78737602
 C           -3.09219622        0.75611697       -0.72558880
 C           -2.68269379        1.64540899       -1.80993722
 C           -1.40438811       -2.25483286       -1.98355064
 C           -2.38381570       -1.17614785       -1.99376791
 C            0.86686599       -2.34988375       -2.92472135
 C            1.86762004       -1.30692480       -3.10323702
 C            1.43808841        0.07876820       -3.20656177
 C           -0.47346349       -2.02691556       -3.08443304
 C           -0.56209485        1.47389009       -3.00196506
 C           -1.96839156        1.11366977       -2.87170594
 C           -2.07073553       -0.30842989       -3.11389629
 C            0.13429661        0.34786307       -3.59621565
 C           -0.81351428       -0.75151012       -3.68924070
