56
Modified xyz file
 C            1.58012263        0.06447377        3.96100448
 C            0.75339238       -1.10818137        3.74222953
 C            1.33174947       -1.87559544        2.65011088
 C            2.61352000        0.07001654        2.94235651
 C            2.55223971       -1.19757157        2.23800133
 C            2.48247896        1.29719754        2.17249435
 C            0.74787677        1.23345403        3.74489202
 C            1.41995453        2.08521844        2.78057477
 C           -0.62364197       -0.66529690        3.61564435
 C           -0.59848227        0.77883237        3.43668869
 C           -1.46757929       -1.41485227        2.81661333
 C            0.46890383       -2.41469018        1.69151033
 C           -0.88646222       -2.47631201        2.01134544
 C            0.87679857       -2.49170409        0.34914286
 C            2.90003482       -1.21305878        0.90023240
 C            2.16133523       -2.07366626        0.00035204
 C            2.58486270        1.22866553        0.78106121
 C            3.08024265        0.05483104        0.20769586
 C            1.90680689        2.16379357       -0.01193912
 C            0.63102676        2.87200280        1.95934189
 C            1.05292139        3.08656512        0.59061370
 C           -1.26277704        1.36391186        2.35530738
 C           -0.79712834        2.59672646        1.90426975
 C           -2.39032074       -0.71901220        1.94320889
 C           -2.07672634        0.57302330        1.52807003
 C           -1.85285293       -2.78316643        0.98263486
 C           -2.82520909       -1.69586376        0.96809893
 C           -0.03629930       -2.82025917       -0.66688585
 C           -1.39069766       -2.96512318       -0.37466397
 C            0.33411474       -2.66982254       -2.00502652
 C            2.41302134       -1.57670243       -1.33910684
 C            2.88918581       -0.20537879       -1.20864723
 C            1.52028363       -1.90417838       -2.34597241
 C            1.87718880        2.01711783       -1.40067685
 C            2.35833185        0.79089778       -2.01396342
 C            0.71497571        2.46868418       -2.15646184
 C           -0.12532922        3.54056664       -0.12684590
 C           -1.28567875        3.13087342        0.65254379
 C           -0.33230469        3.09449910       -1.49140240
 C           -2.38211378        0.98117394        0.21548105
 C           -2.09733924        2.28339119       -0.19114618
 C           -1.66731739        2.51865067       -1.55719163
 C           -2.98567566       -1.28331350       -0.40780328
 C           -2.37131801       -2.31528476       -1.22679312
 C           -2.79570405        0.05108867       -0.75127720
 C           -0.68660865       -2.34991464       -2.99243104
 C           -2.02436380       -2.01195024       -2.53605588
 C            1.12944444       -0.89679500       -3.31926717
 C            1.45135918        0.43927022       -3.09573480
 C            0.42146705        1.46906809       -3.17090546
 C           -0.19316795       -1.24887015       -3.80588259
 C           -1.94761422        1.55314336       -2.51127372
 C           -2.67902942        0.36624273       -2.10554241
 C           -2.34571273       -0.69002390       -3.04874506
 C           -0.90231067        1.12259109       -3.42758919
 C           -1.22387444       -0.22938335       -3.85228960
