56
Modified xyz file
 C            1.36725981        0.02616694        4.36473339
 C            0.61018393       -1.15344409        3.97987386
 C            1.50440053       -2.03394493        3.26893897
 C            2.63188903       -0.00805233        3.64726141
 C            2.72416688       -1.28941566        2.98110018
 C            2.71972504        1.19548514        2.84713070
 C            0.63249844        1.19360270        3.90819801
 C            1.52923192        1.99189480        3.10793040
 C           -0.59450948       -0.71258462        3.30607424
 C           -0.59961568        0.73698191        3.29581639
 C           -1.03335006       -1.36414341        2.15440086
 C            1.05277207       -2.60616818        2.01488341
 C           -0.23596669       -2.34930584        1.54324763
 C            2.91611727       -1.33446253        1.53955672
 C            2.15689256       -2.48333884        1.08548310
 C            2.85852766        1.08686690        1.40202571
 C            2.88289923       -0.16075862        0.77722480
 C            1.04744538        2.47568886        1.82978771
 C            2.03393876        2.13154287        0.82914819
 C           -1.07779647        1.36274158        2.14725483
 C           -0.29212325        2.32159121        1.48263790
 C           -2.00411240       -0.71717515        1.38744238
 C           -2.05155081        0.68313082        1.41371451
 C           -2.57784123       -1.41952650        0.33377830
 C           -0.53028834       -2.73447887        0.23131561
 C           -1.80720392       -2.49040988       -0.26557368
 C            1.87683357       -2.58835077       -0.26371314
 C            0.52488914       -2.94086443       -0.66398651
 C            2.51601759       -0.24116612       -0.57087523
 C            2.28012443       -1.49806915       -1.13078400
 C            1.58286193        1.98257910       -0.47232572
 C            2.04391028        0.90265925       -1.22691954
 C           -0.63942361        2.65200626        0.17106906
 C            0.36044642        2.56377433       -0.81076602
 C           -2.69176756        1.38257595        0.39691341
 C           -1.97398954        2.49341111       -0.18865538
 C           -3.27582464       -0.71319746       -0.72681971
 C           -3.35894739        0.66980860       -0.67845306
 C           -2.02050184       -2.44400768       -1.70281029
 C           -2.94893463       -1.36277933       -1.98566839
 C            0.39202865       -2.53316262       -2.05615745
 C            1.48543672       -1.61280731       -2.34279983
 C           -0.87280831       -2.29473394       -2.57708842
 C            1.65556417        0.81332354       -2.56387065
 C            1.25057361       -0.47504699       -3.09955688
 C            0.04379520        2.67452503       -2.16285436
 C            0.74436419        1.81422795       -3.09786747
 C           -2.37454669        2.60836762       -1.57649198
 C           -3.18052418        1.44191179       -1.90049100
 C           -1.34359111        2.73379793       -2.58245743
 C           -2.40136577       -0.57035576       -3.07457807
 C           -1.10070212       -1.13256027       -3.42354877
 C           -0.03572582       -0.29819705       -3.75454004
 C           -0.25440965        1.12917917       -3.90444673
 C           -2.59538487        0.80789846       -3.07186012
 C           -1.55198838        1.68676850       -3.57098187
