56
Modified xyz file
 C            1.43985398        0.01531277        4.10237048
 C            0.67243047       -1.18790787        3.83060930
 C            1.53066972       -2.08866672        3.10011783
 C            2.59674114       -0.00189555        3.22327648
 C            2.73801568       -1.35402502        2.73678606
 C            2.43172167        1.06889832        2.25538748
 C            0.62314521        1.15178095        3.72066244
 C            1.37777978        1.93388675        2.76241580
 C           -0.58107796       -0.78641283        3.22422600
 C           -0.68055134        0.65750863        3.31346460
 C           -1.02627094       -1.39885161        2.05638820
 C            1.02448677       -2.69911354        1.88434715
 C           -0.23917909       -2.36183061        1.39728227
 C            2.93764761       -1.55691167        1.31730474
 C            2.13573713       -2.71158592        0.95730976
 C            2.48635854        0.78392606        0.88533967
 C            2.95716817       -0.46422457        0.44776857
 C            1.87206015        1.66567237       -0.01680396
 C            0.65756599        2.68766030        1.85395509
 C            1.10268691        2.71982832        0.47651714
 C           -1.34705914        1.32924760        2.29261572
 C           -0.78578390        2.51058603        1.79922580
 C           -2.06270172       -0.78130110        1.36145826
 C           -2.22342331        0.61004711        1.47548472
 C           -2.64034004       -1.48263924        0.31010066
 C           -0.55078543       -2.71929917        0.07868345
 C           -1.80182861       -2.39448176       -0.43781790
 C            1.87015614       -2.91930448       -0.38551331
 C            0.48144836       -3.00677430       -0.81788543
 C            2.97602027       -0.74738726       -0.91412552
 C            2.56102697       -2.07433767       -1.34241894
 C            1.84330070        1.38005160       -1.38578443
 C            2.42422545        0.20650391       -1.85726537
 C            0.98410943        2.09119130       -2.22707812
 C           -0.02120067        3.20862711       -0.30201664
 C           -1.21889257        3.02736309        0.50896583
 C           -0.05771148        2.92939706       -1.65857123
 C           -2.95862267        1.31910156        0.52542034
 C           -2.36902569        2.50517766       -0.06750366
 C           -3.51469537       -0.81118351       -0.63065963
 C           -3.68111491        0.61864114       -0.51768157
 C           -1.90980406       -2.02213020       -1.84102832
 C           -3.02851358       -1.10514888       -1.96995874
 C            0.40616806       -2.48532448       -2.17599158
 C            1.70455627       -1.92615567       -2.50305615
 C            1.77059808       -0.54508617       -2.92498052
 C           -0.74457645       -1.80850583       -2.57276926
 C            0.41777674        1.42056677       -3.38342141
 C            0.65341125       -0.00053055       -3.53760607
 C           -0.63173695       -0.67939787       -3.39556138
 C           -1.31776022        2.56738318       -2.29233108
 C           -2.45021219        2.35830870       -1.51246131
 C           -3.30978669        1.21644786       -1.79098752
 C           -2.83374826        0.15271045       -2.66324186
 C           -1.01828923        1.64144883       -3.37231926
 C           -1.67217416        0.34313862       -3.40064369
