56
Modified xyz file
 C            1.38848420       -0.01951456        3.94373638
 C            0.60100031       -1.18867601        3.61353295
 C            1.23374164       -1.86758504        2.49350421
 C            2.56342227       -0.03442120        3.09690420
 C            2.42138715       -1.11437115        2.13432439
 C            2.71854269        1.30487431        2.57535981
 C            0.60417906        1.14720596        3.57008093
 C            1.39660117        1.92130754        2.64146047
 C           -0.76613862       -0.74377034        3.44215486
 C           -0.69523090        0.67820714        3.14253938
 C           -1.58354181       -1.52397259        2.64370633
 C            0.41179370       -2.36285675        1.48930786
 C           -0.94671108       -2.50421954        1.77756145
 C            0.81560218       -2.24449362        0.15658342
 C            2.68437003       -0.83180129        0.79515026
 C            1.81200873       -1.31923623       -0.19373880
 C            3.42305701        1.43807983        1.39297252
 C            3.50329433        0.26705538        0.52453494
 C            3.06327988        2.54741971        0.53873859
 C            0.81187079        2.39324883        1.46388037
 C            1.66375046        2.93886860        0.50524157
 C           -1.22894042        1.13044914        1.93702823
 C           -0.45442042        1.92564879        1.07097673
 C           -2.57005307       -0.85878888        1.81705774
 C           -2.34998107        0.46612050        1.43910056
 C           -1.88082844       -2.79623354        0.70516409
 C           -2.97183827       -1.83071083        0.81453209
 C            0.01598364       -2.80621404       -0.83935748
 C           -1.37234247       -3.12869250       -0.54169499
 C            0.06244854       -2.25404986       -2.17884617
 C            1.88144237       -0.83899459       -1.51540383
 C            0.85095176       -1.13557905       -2.40765420
 C            3.63010632        0.74389998       -0.83415978
 C            3.46999204        2.18940254       -0.80447492
 C            2.72150383        0.22677487       -1.83328863
 C            1.25338248        2.97839019       -0.88646331
 C            2.37367666        2.51722016       -1.69144898
 C            2.15863042        1.36569723       -2.54239776
 C           -0.92157601        2.19718904       -0.22504698
 C           -0.01748320        2.53896991       -1.23451383
 C           -2.97173099        0.95469382        0.29902231
 C           -2.21724675        1.82307813       -0.58297778
 C           -3.62687450       -1.38222361       -0.32548281
 C           -3.76219196        0.05047286       -0.52446652
 C           -2.16671604       -2.85847080       -1.72580141
 C           -1.28243461       -2.30353144       -2.73508529
 C           -3.32193212       -1.98585686       -1.61222232
 C           -2.48636174        1.40529856       -1.95157495
 C           -3.47158729        0.34025177       -1.91735126
 C           -1.88281308       -1.07853548       -3.23455750
 C           -3.17240546       -0.91468424       -2.58405661
 C            0.36898409       -0.12422129       -3.23924317
 C            0.89587712        1.21686704       -3.08802858
 C           -0.18700585        1.99787880       -2.51008269
 C           -1.06431703        0.02808829       -3.42246887
 C           -1.42666168        1.31904640       -2.84226721
