56
Modified xyz file
 C            1.09903436        0.20669502        4.01103458
 C            2.30688042        0.03812705        3.22994612
 C            2.35575947       -1.35287326        2.82784507
 C            0.27248155       -0.97658562        3.79822408
 C            1.00691719       -1.87696990        2.93704492
 C           -1.03627417       -0.52893296        3.37782943
 C            0.27367673        1.36659821        3.74988318
 C           -1.09546489        0.90156905        3.62414407
 C            0.54770776        2.17124775        2.57315406
 C            2.48566523        0.83392720        2.02571665
 C            1.50667926        1.74900735        1.64593596
 C            2.99595208       -1.40768361        1.52980942
 C            3.06060898       -0.03935571        1.01973603
 C            2.59061386       -2.41018488        0.66268477
 C            0.40278357       -2.38324141        1.78767500
 C            1.23800986       -2.93397987        0.81116899
 C           -1.58755295       -1.02382646        2.19906444
 C           -0.90040083       -1.98788272        1.44351795
 C           -2.62692765       -0.29806810        1.61562927
 C           -1.75230472        1.74484742        2.63880624
 C           -0.74082944        2.64577048        2.09927367
 C           -2.65814660        1.14902264        1.77068279
 C           -0.84091044        3.07682693        0.78480665
 C            1.33196066        2.04659352        0.29148145
 C            0.31619583        2.92860988       -0.07793196
 C            2.78538303        0.19873949       -0.32631543
 C            2.00801584        1.30524956       -0.68958674
 C            2.82411874       -2.21089661       -0.75132792
 C            2.94826371       -0.84911272       -1.23301325
 C            0.72323739       -3.22899398       -0.51604043
 C            1.73096629       -2.83231413       -1.47975588
 C           -1.46497051       -2.45469655        0.25479215
 C           -0.60834166       -2.97403380       -0.79690200
 C           -3.07793320       -0.61183102        0.27211301
 C           -2.53335899       -1.70449868       -0.38477673
 C           -2.86905153        1.72441335        0.45319763
 C           -2.00942515        2.71775385       -0.00481724
 C           -3.26836246        0.64486902       -0.43824928
 C           -0.16554330        2.94840502       -1.44529223
 C           -1.60918226        2.73393965       -1.40343303
 C            1.73992163        1.53264210       -2.04332751
 C            0.60130442        2.34948306       -2.43321194
 C            2.27410386       -0.79840681       -2.51547340
 C            1.35958850       -1.93255233       -2.55773212
 C            1.83327723        0.42731309       -2.98480636
 C           -0.97080754       -2.30164628       -2.03936032
 C           -2.23822451       -1.62245470       -1.80789895
 C            0.01235031       -1.70897130       -2.83967516
 C           -2.97513070        0.72552225       -1.79528264
 C           -2.21262333        1.85691996       -2.30012255
 C           -2.53637195       -0.46245402       -2.51193561
 C           -0.05579844        1.69934428       -3.55393062
 C            0.63819206        0.44991701       -3.80780424
 C           -0.32004586       -0.63231117       -3.66066581
 C           -1.47438892        1.40681675       -3.46612834
 C           -1.64127780       -0.03541234       -3.57039987
