56
Modified xyz file
 C            1.48619045        0.09203434        4.14039499
 C            0.65890128       -1.09955075        4.09764356
 C            1.42445567       -2.13391510        3.42967353
 C            2.60642772       -0.11731384        3.23657262
 C            2.59140609       -1.50152621        2.82679366
 C            2.53853163        0.90345026        2.21125732
 C            0.70139899        1.19516849        3.61483146
 C            1.48377833        1.83553656        2.57837205
 C           -0.63774889       -0.72683937        3.55632174
 C           -0.60518944        0.69373872        3.24510962
 C           -1.28330731       -1.59071561        2.68202740
 C            0.77880611       -2.92268943        2.39499288
 C           -0.58485769       -2.76082311        2.16070592
 C            2.56128093       -1.80539290        1.40804337
 C            1.69124728       -2.95687782        1.26327549
 C            2.67151186        0.56079749        0.86363541
 C            2.48313838       -0.77303945        0.46481969
 C            2.42447984        1.57910915       -0.04996446
 C            0.80868726        2.46398893        1.53926268
 C            1.52966191        2.64707671        0.36486763
 C           -1.14998991        1.15086355        2.04779331
 C           -0.57504261        2.27228492        1.43945681
 C           -2.07850772       -1.03470256        1.60137132
 C           -1.98569308        0.31710041        1.29349732
 C           -1.10714644       -3.02737287        0.83019843
 C           -2.08578291       -1.99134043        0.51455954
 C            1.19218269       -3.23917527        0.00343425
 C           -0.23610806       -3.46692329       -0.15894738
 C            1.98946409       -1.07217514       -0.81625473
 C            1.59427054       -2.38045234       -1.09321647
 C            2.09003688        1.25152737       -1.42031982
 C            1.70384977       -0.04640206       -1.72952283
 C            0.84945951        3.14696061       -0.81321514
 C            1.33329462        2.37152405       -1.95053527
 C           -1.26006631        2.86483561        0.38357935
 C           -0.50113772        3.45287144       -0.70810177
 C           -2.42656052        0.75216923        0.04307334
 C           -2.34435631        2.11799267       -0.22096850
 C           -2.20071935       -1.51650259       -0.79032523
 C           -2.54472916       -0.17655570       -1.00853061
 C           -0.55192256       -3.17307138       -1.54299494
 C            0.64967702       -2.62400482       -2.15751053
 C           -1.62818096       -2.24449961       -1.83339915
 C            0.86999803       -0.27691344       -2.83863677
 C            0.23580437       -1.50981398       -2.98013900
 C           -1.21791717       -1.54180958       -3.03223137
 C            0.50656471        2.16156547       -3.04390584
 C            0.30697074        0.80363519       -3.52337203
 C           -1.33430827        3.40296652       -1.89586943
 C           -2.51942961        2.62247958       -1.56721405
 C           -0.77062038        2.85542140       -3.11375625
 C           -2.68570965        0.25851597       -2.33079158
 C           -1.87531487       -0.36980853       -3.36164156
 C           -1.07843079        0.68825723       -3.94968768
 C           -2.74078516        1.67668055       -2.63551767
 C           -1.75191386        1.94165477       -3.66899462
