56
Modified xyz file
 C            1.25633723       -0.00229565        3.78596964
 C            2.49218779       -0.22787829        3.06131078
 C            2.43101552       -1.57256732        2.51811133
 C            0.39896448       -1.15986610        3.56476822
 C            1.05100616       -2.01331295        2.60003071
 C           -0.92309552       -0.67136774        3.26254435
 C            0.46850823        1.18304808        3.49597114
 C           -0.92175918        0.76672733        3.47861903
 C            0.91817084        2.09823086        2.54911549
 C            2.85119185        0.66523454        1.97417121
 C            2.11387144        1.82014234        1.75853681
 C            3.05570526       -1.55242626        1.21300621
 C            3.23760318       -0.15331727        0.83669705
 C            2.56229119       -2.42517812        0.25791995
 C            0.39133897       -2.35863098        1.41916569
 C            1.16925969       -2.85068145        0.37085471
 C           -1.60976355       -1.17788104        2.16473367
 C           -0.89815321       -1.85830936        1.15467175
 C           -2.82798331       -0.57183684        1.87554657
 C           -1.85795880        1.53124730        2.79382464
 C           -2.98672284        0.83617172        2.20056727
 C           -0.04186819        2.77333256        1.68670606
 C           -1.39950116        2.51723176        1.82130385
 C            1.85983746        2.25395271        0.39785575
 C            0.53488426        2.85262113        0.35656607
 C            2.92282804        0.25275737       -0.46541961
 C            2.28072646        1.48188943       -0.68506398
 C            2.80380210       -2.10056106       -1.13084469
 C            2.96912284       -0.70342675       -1.48297631
 C            0.61633644       -2.91760851       -0.96638351
 C            1.68806050       -2.61453831       -1.89932530
 C           -1.45389131       -2.01248623       -0.13164386
 C           -0.64561946       -2.39258579       -1.20679692
 C           -3.45403214       -0.78880047        0.59512789
 C           -2.73276340       -1.53638786       -0.41066028
 C           -3.33346914        1.52589946        0.97258555
 C           -2.20939827        2.37282936        0.62155377
 C           -3.76191045        0.51981180        0.02843327
 C           -0.25404250        2.64146488       -0.77101545
 C           -1.58506265        2.21844959       -0.62028999
 C            1.71307671        1.76397887       -1.92903119
 C            0.41499637        2.42280864       -1.96897422
 C            2.24476425       -0.48852931       -2.72238872
 C            1.42381679       -1.67298619       -2.97023078
 C            1.74211404        0.77602372       -2.99261308
 C           -0.95957509       -1.96368340       -2.50114672
 C            0.10827542       -1.52065532       -3.38769822
 C           -2.95977864       -0.84399646       -1.66437924
 C           -3.19606857        0.54040412       -1.30205003
 C           -2.22967913        1.48884843       -1.63822135
 C           -2.10677979       -1.09862378       -2.72484562
 C           -0.31347701        1.91613573       -3.10739348
 C            0.51462360        0.91250208       -3.75930892
 C           -0.30356578       -0.26277377       -3.98244685
 C           -1.62384821        1.34721017       -2.88413054
 C           -1.64494980        0.03423858       -3.51098956
