56
Modified xyz file
 C            1.45071101        0.11244943        4.13617423
 C            0.63858857       -1.06124006        3.88122948
 C            1.49774905       -2.02514770        3.23379346
 C            2.60622379        0.03781613        3.25461917
 C            2.68415154       -1.31600209        2.76556804
 C            2.48702428        1.11693712        2.29368575
 C            0.68033552        1.27079457        3.73217077
 C            1.51765296        2.04999800        2.84230181
 C           -0.56597695       -0.63478596        3.18566514
 C           -0.60308989        0.81605739        3.21883290
 C           -0.95089475       -1.29118845        2.01937166
 C            0.97227181       -2.74465554        2.09428455
 C           -0.33105092       -2.49837741        1.66415996
 C            2.76765971       -1.53684488        1.33436957
 C            2.02635356       -2.75629896        1.09708083
 C            2.45830923        0.84495610        0.91997528
 C            2.59709211       -0.47374981        0.44423433
 C            2.01266230        1.85448446        0.05911506
 C            0.86969418        2.89075022        1.95861050
 C            1.36119461        2.96412778        0.59736873
 C           -1.14104680        1.50764394        2.13662258
 C           -0.56922023        2.74254467        1.82839312
 C           -1.72346388       -0.60262583        1.07847506
 C           -1.81438250        0.79916205        1.13012969
 C           -2.29836622       -1.30972295        0.01984520
 C           -0.72156675       -3.13366067        0.49117739
 C           -1.77800242       -2.55745942       -0.32006142
 C            1.66753185       -3.06426178       -0.20327066
 C            0.32655245       -3.57695246       -0.41446115
 C            2.28794266       -0.77372420       -0.88870213
 C            1.90019462       -2.06801641       -1.23971965
 C            1.93476446        1.61225856       -1.30988895
 C            2.06207963        0.25338506       -1.79526175
 C            0.92616631        2.28636732       -2.12096186
 C            0.30117911        3.60595333       -0.15919372
 C           -0.93037498        3.40484192        0.59498936
 C            0.05086155        3.18414884       -1.52479572
 C           -2.38112735        1.50321744        0.05812701
 C           -1.86893285        2.75314299       -0.28686475
 C           -1.38123010        2.96292462       -1.63904347
 C           -3.06911990       -0.63631727       -0.92255003
 C           -3.09295726        0.81341544       -0.91669754
 C           -2.99808352       -1.07212546       -2.30774850
 C           -1.46597489       -2.84613876       -1.71628921
 C           -0.07071250       -3.22467452       -1.76185702
 C            0.88208340       -2.25353508       -2.26651701
 C           -1.91997835       -1.96256091       -2.67991034
 C            1.09337165        0.06105554       -2.86717240
 C            0.41602997        1.33171959       -3.09222777
 C            0.39541328       -1.14546419       -2.95699989
 C           -0.93431221       -1.15470020       -3.39315818
 C           -1.86896844        2.13564537       -2.63960008
 C           -2.97752072        1.26472822       -2.29650355
 C           -2.90167544        0.10050148       -3.15486599
 C           -0.93234882        1.34670638       -3.43214876
 C           -1.58146651        0.09249702       -3.76389912
