56
Modified xyz file
 C            1.42313159       -0.23216954        4.58388037
 C            0.55573819       -1.37614316        4.39145898
 C            1.13584810       -2.19461317        3.34059890
 C            2.52282461       -0.35152784        3.64022310
 C            2.22270592       -1.45175126        2.74340270
 C            2.72340247        0.95782931        3.07210887
 C            0.67256108        0.95339904        4.20643045
 C            1.57286680        1.77952993        3.44116422
 C           -0.71465456       -0.88384043        3.88648074
 C           -0.56473355        0.52023368        3.57945827
 C            0.05145588       -2.58741646        2.47171735
 C           -1.09895442       -1.75685515        2.80675516
 C            0.31304411       -2.76633050        1.11691252
 C            2.18344347       -1.24032806        1.36250041
 C            1.43522076       -2.12231279        0.56966653
 C            2.86743192        1.07485910        1.63398021
 C            2.64657795       -0.03169164        0.81007434
 C            1.08547212        2.36951680        2.21307537
 C            2.20164878        2.31070637        1.29465958
 C           -0.87823609        0.95331042        2.28560910
 C           -0.17957531        2.03062954        1.72311708
 C           -1.81075440       -1.22596018        1.73953532
 C           -1.68970842        0.14913368        1.46438458
 C           -0.81686486       -2.90838841        0.32056504
 C           -1.96410239       -2.08997321        0.66935844
 C           -0.69428097       -2.90249782       -1.12320344
 C            1.58233719       -2.05640818       -0.81493042
 C            0.51339960       -2.52386059       -1.68583503
 C            2.47370645        0.20745261       -0.55953111
 C            2.13185241       -0.84683690       -1.39894089
 C            1.92619500        2.54421369       -0.03463562
 C            2.27943587        1.51767460       -1.00119465
 C           -0.46952369        2.40915672        0.41339365
 C            0.56988590        2.91680757       -0.36754803
 C           -2.09254004        0.63968330        0.20912364
 C           -1.58322586        1.87085109       -0.23051004
 C           -2.53640417       -1.59557054       -0.55361780
 C           -1.93104020       -2.34332817       -1.64305998
 C           -2.72323788       -0.22910064       -0.70008127
 C           -1.94735563       -1.77364612       -2.90715967
 C            0.51330376       -1.69761498       -2.88272440
 C            1.42806127       -0.58739261       -2.65099759
 C           -0.67913766       -1.46939729       -3.56196273
 C            1.45620135        1.77329679       -2.17769737
 C            0.48518738        2.79832082       -1.80459133
 C            1.05064522        0.71450148       -2.98930357
 C           -1.87522276        2.32838487       -1.51760871
 C           -0.77305390        2.75006206       -2.37192870
 C           -3.10428850        0.22308844       -1.96063723
 C           -2.82107824       -0.63059303       -3.10692512
 C           -2.80222147        1.58281034       -2.34088269
 C           -0.83995984       -0.21052507       -4.26521278
 C           -0.01703137        0.91823100       -3.86718821
 C           -0.90788763        2.04129991       -3.62527651
 C           -2.23407662        0.18624893       -4.14919222
 C           -2.27443475        1.56484166       -3.69725785
