56
Modified xyz file
 C            1.49475279        0.06091193        3.96407370
 C            0.67466116       -1.12459656        3.79394839
 C            1.29257533       -1.95022571        2.77435769
 C            2.48978179        0.06797689        2.90442237
 C            2.36017587       -1.16484207        2.16877920
 C            2.35383918        1.30800437        2.17780394
 C            0.64108037        1.21531884        3.76007768
 C            1.33099368        2.10298598        2.85031475
 C           -0.69518491       -0.69832654        3.58931817
 C           -0.67341231        0.73937737        3.36906367
 C           -1.49827509       -1.47876186        2.77854526
 C            0.47449985       -2.70900711        1.93700159
 C           -0.91287606       -2.63258827        2.10611117
 C            1.00392829       -3.10391714        0.70570028
 C            2.45371738       -1.14917763        0.78352147
 C            2.10924550       -2.33666839        0.15577707
 C            2.38804485        1.29390650        0.78054507
 C            2.32022123        0.07068650        0.08570169
 C            2.03039337        2.47197699        0.13079070
 C            0.55448701        2.93788549        2.06663722
 C            1.12666113        3.37930224        0.81460231
 C           -1.26232041        1.28270250        2.22257039
 C           -0.81815153        2.52478910        1.77925760
 C           -2.34227551       -0.81850256        1.80236315
 C           -1.99565247        0.45858032        1.36020821
 C           -1.79963931       -2.95199420        1.00075896
 C           -2.71482676       -1.82967900        0.84126426
 C            0.13117451       -3.46851819       -0.40179068
 C           -1.23314970       -3.25565965       -0.29898552
 C            2.02409058       -2.38514903       -1.28051007
 C            0.80704336       -3.10476958       -1.63197424
 C            2.08196570        0.06814929       -1.30530970
 C            2.02184205       -1.13676295       -2.00611964
 C            1.63183795        2.44022820       -1.26182360
 C            1.67533118        1.23719664       -1.95997059
 C            0.02580766        3.65312542       -0.08171066
 C           -1.14022719        2.95984845        0.43529140
 C            0.47017734        3.31455451       -1.41503088
 C           -2.17500930        0.81559922        0.00666447
 C           -1.83005016        2.11087748       -0.42572776
 C           -2.73299925       -1.46932491       -0.55241939
 C           -1.90909466       -2.41942767       -1.28131757
 C           -2.66394312       -0.13325892       -0.91716902
 C            0.10345613       -2.30647526       -2.62082795
 C            1.04511679       -1.28636179       -3.06669278
 C           -1.24179659       -1.97309386       -2.42492818
 C            0.98302999        1.14966975       -3.17221174
 C            0.55679790       -0.14615849       -3.67730848
 C           -0.50403063        2.94303268       -2.32445540
 C           -1.74716360        2.39381722       -1.79203214
 C           -0.10024213        2.08472487       -3.41617427
 C           -2.53456858        0.10092552       -2.27966491
 C           -1.75030734       -0.84290941       -3.06543113
 C           -0.87004132       -0.06767298       -3.91818769
 C           -2.24384360        1.43283131       -2.74803274
 C           -1.26764837        1.32484414       -3.81966510
