56
Modified xyz file
 C            1.49735959       -0.15978875        4.10343065
 C            0.68404008       -1.35515625        4.21715604
 C            1.20451479       -2.32819910        3.27719781
 C            2.46317727       -0.37331365        3.03655889
 C            2.23828433       -1.68604356        2.47861393
 C            2.38491414        0.76095162        2.14910788
 C            0.62949461        0.92480441        3.68277093
 C            1.29568358        1.60714855        2.59719828
 C           -0.66244856       -1.02295280        3.78262675
 C           -0.68627320        0.38285435        3.41984359
 C            0.06996868       -2.90244756        2.57966275
 C           -1.05520188       -1.99771835        2.77879787
 C            0.29449631       -3.38707578        1.30233986
 C            2.18714485       -1.84295346        1.09334297
 C            1.50561746       -2.96184429        0.61701267
 C            2.50178637        0.56447058        0.77856599
 C            2.38439338       -0.73360024        0.24267736
 C            2.17290915        1.65000382       -0.02956333
 C            0.52139101        2.18543633        1.60311518
 C            1.17778378        2.52630901        0.43014484
 C           -1.31509915        0.74662445        2.23360890
 C           -0.83492502        1.84500906        1.50956427
 C           -1.76741770       -1.55407961        1.66505428
 C           -2.10238740       -0.19610140        1.57816401
 C           -0.77362086       -3.29167466        0.32682406
 C           -1.77982618       -2.34679525        0.51087727
 C            1.26657264       -3.10544419       -0.80057121
 C           -0.14711111       -3.40118182       -0.97813022
 C            2.26296363       -0.89172961       -1.15382841
 C            1.59567466       -2.00095739       -1.66789660
 C            2.44206500        1.53871758       -1.38484066
 C            2.33777415        0.22700903       -1.98290262
 C            1.88663257        2.49889440       -2.32159753
 C            0.48187607        3.33371616       -0.45681229
 C            0.94462363        3.47274768       -1.82210748
 C           -1.56079574        2.29170893        0.39458424
 C           -0.96443165        3.21635291       -0.46882363
 C           -2.92107567        0.24076626        0.54722034
 C           -2.64737339        1.53415768       -0.06131871
 C           -2.50415921       -1.92343441       -0.60078998
 C           -3.25555443       -0.68812535       -0.51232087
 C           -0.64568014       -2.57370171       -2.06244566
 C            0.46758633       -1.78569410       -2.56247780
 C           -1.88163257       -1.96839515       -1.91964593
 C            1.37209838        0.34226930       -3.06543183
 C            1.22952526        1.74810034       -3.38179658
 C            0.25931107       -0.49881507       -3.05573150
 C           -0.21804623        3.45062201       -2.69107571
 C           -1.39257675        3.26795239       -1.85497923
 C           -0.10185968        2.28215335       -3.54803713
 C           -2.91009744        1.41354938       -1.49398944
 C           -3.11703341        0.00785802       -1.77857359
 C           -2.11086433       -0.68815741       -2.55978224
 C           -1.03959772        0.04517576       -3.07262911
 C           -2.13261429        2.14276257       -2.37937334
 C           -1.23195905        1.41725501       -3.26858896
