56
Modified xyz file
 C            1.42255325       -0.01021926        3.89207065
 C            0.60700880       -1.20335773        3.80428764
 C            1.24018019       -2.10191230        2.85374426
 C            2.45045400       -0.10873920        2.86890731
 C            2.22364052       -1.32116715        2.11813795
 C            2.44834753        1.13463927        2.14460205
 C            0.57769921        1.12228517        3.55156275
 C            1.29111101        1.90412103        2.57654881
 C           -0.76298013       -0.78699027        3.55517882
 C           -0.72477304        0.61948268        3.18204726
 C           -1.58096822       -1.64545127        2.83693359
 C            0.42859049       -2.97911655        2.15137829
 C           -1.01208118       -2.88913547        2.33899182
 C            0.66223202       -3.16598966        0.73016541
 C            2.13840244       -1.25111127        0.72646151
 C            1.52173451       -2.30396980        0.04508807
 C            2.71553510        1.12610608        0.78196147
 C            2.46287727       -0.05491897        0.04900781
 C            2.52163732        2.35267070        0.16000167
 C            0.57800418        2.56024704        1.58291921
 C            1.37408039        3.13005770        0.59911391
 C           -1.28536450        1.02204783        1.96849964
 C           -0.69159753        2.06165517        1.21920632
 C           -2.41940627       -1.10111186        1.78287670
 C           -2.29801399        0.23613156        1.40920586
 C           -1.64824262       -3.19823732        1.06983251
 C           -0.60874661       -3.54055007        0.12377217
 C           -2.54679660       -2.10903774        0.74039264
 C           -0.81764635       -3.24048359       -1.21302362
 C            1.48818166       -2.29930796       -1.34123674
 C            0.33452289       -2.87396929       -2.01342572
 C            2.37518441       -0.00752285       -1.35828219
 C            1.85852899       -1.09570425       -2.05332688
 C            2.58653329        2.43145536       -1.27498400
 C            2.36149952        1.21883381       -2.02188007
 C            0.75173775        3.70488302       -0.56446961
 C            1.60901404        3.41803319       -1.70255498
 C           -1.29155747        2.47717823        0.01379076
 C           -0.58615683        3.27438686       -0.89270512
 C           -2.88478376        0.62153219        0.21388501
 C           -2.43224854        1.82667377       -0.44653147
 C           -2.64860369       -1.68440014       -0.58219890
 C           -1.90713094       -2.33824302       -1.57756453
 C           -3.11594482       -0.39176698       -0.80653849
 C           -0.10625069       -1.93879729       -3.03237245
 C            0.85229807       -0.85292733       -3.07870569
 C           -1.49927568       -1.62785083       -2.78668296
 C            1.30149487        1.47892724       -2.98751407
 C            0.78391337        2.80771225       -2.72700061
 C           -0.59523232        2.92994207       -2.31053819
 C            0.40904574        0.45113895       -3.28003620
 C           -2.59367600        1.62475981       -1.87737191
 C           -2.92431556        0.22866068       -2.10196328
 C           -1.93701150       -0.32951829       -3.00300372
 C           -1.48859970        1.96746953       -2.74949654
 C           -0.96863830        0.72047655       -3.30716388
