56
Modified xyz file
 C            1.43510570       -0.02781053        3.97856017
 C            0.63673855       -1.23610904        3.92595316
 C            1.32910114       -2.17434425        3.06298557
 C            2.44454678       -0.12541682        2.93547294
 C            2.27836907       -1.39700615        2.27427653
 C            2.35498750        1.06717277        2.13312264
 C            0.56805962        1.08502233        3.63853159
 C            1.26796234        1.88191791        2.65805630
 C           -0.72634383       -0.86227063        3.58606460
 C           -0.72252109        0.55479211        3.25917634
 C           -1.46767928       -1.73319969        2.80178543
 C            0.57538183       -3.14610247        2.42219687
 C           -0.87636346       -3.00979767        2.42643115
 C            0.97125539       -3.54465292        1.08505283
 C            2.21320046       -1.44544758        0.87960721
 C            1.79779886       -2.63663035        0.30263314
 C            2.47496678        0.97267475        0.74837142
 C            2.19809595       -0.25756192        0.12026083
 C            2.22753924        2.15222166        0.06047254
 C            0.52520683        2.59002450        1.72430908
 C            1.26106267        3.06470018        0.64686486
 C           -1.27092142        0.99482071        2.05664959
 C           -0.80708634        2.19537273        1.50106157
 C           -2.17163663       -1.21567798        1.63911040
 C           -2.02485974        0.11759437        1.26570292
 C           -1.36606549       -3.35443311        1.10359960
 C           -0.23840167       -3.80920074        0.32469772
 C           -2.13896296       -2.23036629        0.60028499
 C            1.26719128       -2.62955921       -1.03799274
 C           -0.05484672       -3.22945813       -0.98425993
 C            1.81259438       -0.29026100       -1.24210842
 C            1.41382358       -1.50383925       -1.83611895
 C            1.98244226        2.12029785       -1.36000671
 C            1.73354385        0.90636599       -1.98355560
 C            0.58674849        3.76162483       -0.42214160
 C            1.12902753        3.25777041       -1.67253126
 C           -1.51179445        2.72904502        0.42087408
 C           -0.85218543        3.65744146       -0.48313145
 C           -2.34189053        0.47887647       -0.04426660
 C           -2.32119099        1.82936446       -0.38241990
 C           -1.97675338       -1.81512239       -0.72238728
 C           -1.09199946       -2.51262400       -1.56578104
 C           -2.34295244       -0.50118028       -1.04578095
 C            0.58527326       -1.46878620       -2.95555540
 C           -0.78032984       -1.94853451       -2.79445981
 C            1.06385402        0.94049304       -3.20912715
 C            0.54679625       -0.28316344       -3.77218427
 C            0.02190404        3.06450460       -2.58926677
 C           -1.20945674        3.29468582       -1.84299837
 C           -2.20567643        2.23494080       -1.77431084
 C            0.07364687        1.98272931       -3.45535401
 C           -2.39519649       -0.12895028       -2.38709281
 C           -1.65816537       -0.93613038       -3.33360676
 C           -0.84058814       -0.05340081       -4.14485596
 C           -2.21218931        1.26363002       -2.76412475
 C           -1.17016690        1.30895393       -3.77674678
