56
Modified xyz file
 C            1.14170257       -0.00846482        3.86158973
 C            2.40010407       -0.31307679        3.22187768
 C            2.34044188       -1.70679706        2.80789386
 C            0.33600381       -1.21982960        3.81739502
 C            0.94095683       -2.07792474        2.81841188
 C           -1.03765073       -0.80879896        3.63125469
 C            0.32404057        1.05254606        3.31041176
 C           -1.04502547        0.64169204        3.51234497
 C            0.65656556        1.62844188        2.08475033
 C            2.78295229        0.44816748        2.05058993
 C            1.86176508        1.29997449        1.44195923
 C            3.07036307       -1.81105033        1.56771134
 C            3.51777580       -0.47084514        1.21204737
 C            2.38674872       -2.33622989        0.40502049
 C            0.27100966       -2.29345864        1.60815280
 C            1.00093706       -2.50854857        0.42333126
 C           -1.76543855       -1.32639119        2.49094366
 C           -1.12362814       -2.14003474        1.55988554
 C           -2.01006789        0.98783014        2.48924570
 C           -2.60639274       -0.24818326        2.00394518
 C           -0.33592260        2.30698482        1.36973308
 C           -1.68844896        1.96219088        1.55412915
 C            0.05682778        3.05728366        0.26280348
 C            2.04037513        1.63975484        0.09518638
 C            1.26342039        2.66431313       -0.44241818
 C            3.37700201       -0.34633815       -0.22533387
 C            2.98216104       -1.65576730       -0.72415173
 C            2.75521119        0.78227988       -0.75655724
 C            2.33313645       -1.72371605       -1.94571136
 C            0.33198083       -2.61661503       -0.79980243
 C            0.99871142       -2.30316356       -1.99040466
 C           -1.80059705       -2.39261808        0.37422897
 C           -1.05058135       -2.74916351       -0.81197494
 C           -3.06165961       -0.30029521        0.68597460
 C           -2.86666766       -1.48333684       -0.02982107
 C           -2.58682982        2.10157552        0.50287637
 C           -3.24531354        0.90645648       -0.00002502
 C           -0.92171160        3.46855722       -0.72650178
 C           -2.26710479        2.95272746       -0.62149566
 C            0.97038916        2.67885647       -1.86774863
 C           -0.40830026        3.09952057       -2.03414084
 C            2.45984877        0.76094178       -2.11816807
 C            2.31009844       -0.52858003       -2.77068160
 C            1.43930559        1.64067819       -2.65451786
 C            0.27573505       -1.65611805       -3.07875859
 C            1.05719700       -0.51382317       -3.50600586
 C            0.48240872        0.81281983       -3.37861965
 C           -1.79907735       -2.27537347       -1.96417332
 C           -2.90468140       -1.46594975       -1.48046608
 C           -1.10054607       -1.51952035       -2.98552926
 C           -3.18756381        0.95467980       -1.45694453
 C           -2.56103491        2.20768701       -1.83581191
 C           -1.35105256        2.17173215       -2.63650120
 C           -0.88124731        0.95044577       -3.11782743
 C           -2.86423714       -0.19094354       -2.16660621
 C           -1.69439465       -0.18718175       -3.03699549
