56
Modified xyz file
 C            1.37308005       -0.22232409        4.40285921
 C            0.60073012       -1.45021228        4.39421372
 C            1.11281105       -2.28124614        3.32173116
 C            2.31921850       -0.28108434        3.29886832
 C            2.12895840       -1.52854077        2.59992792
 C            2.18072668        0.93525707        2.54102903
 C            0.46115743        0.87702826        4.13714793
 C            1.03381862        1.66621400        3.06447904
 C           -0.77237473       -1.11333657        4.05696876
 C           -0.86986312        0.33268679        3.95660610
 C           -0.02724465       -2.77254213        2.57151292
 C           -1.16024207       -1.92342783        2.91076108
 C            0.17951249       -3.07696935        1.23863921
 C            2.07510508       -1.52615314        1.20537324
 C            1.38761345       -2.57223133        0.60487404
 C            2.34504888        0.89904092        1.16247627
 C            2.26480956       -0.33114763        0.48139694
 C            1.96274774        2.05026551        0.49761335
 C            0.19047585        2.29601801        2.15024665
 C            0.77178034        2.73995418        0.96700321
 C           -1.66942506        0.87074359        2.95863924
 C           -1.17261910        1.98194106        2.15305080
 C           -1.90307010       -1.33546904        1.88434904
 C           -2.36324106       -0.02757261        2.05053604
 C           -0.89634503       -2.84019858        0.29615867
 C           -1.87414925       -1.90091536        0.60338318
 C            1.13084643       -2.52315551       -0.81141533
 C           -0.27868243       -2.81530575       -1.01700908
 C            2.12085868       -0.33926574       -0.92629224
 C            1.69827701       -1.51713239       -1.57264141
 C            1.93932093        2.06366438       -0.94234302
 C            2.15479205        0.87955968       -1.63445264
 C           -0.05603857        2.98582677       -0.19953996
 C            0.83481068        2.92194898       -1.34152022
 C           -1.91998710        1.96326196        0.89776065
 C           -2.73546994        0.75871620        0.88927283
 C           -1.30826615        2.38738383       -0.28055787
 C           -2.55185881       -1.27968611       -0.44414167
 C           -2.95628600        0.11134013       -0.31190316
 C           -0.92306907       -2.18402792       -2.07592908
 C           -2.10506026       -1.48091100       -1.82057717
 C            1.26336353       -1.46175580       -2.89040797
 C           -0.12780262       -1.80473340       -3.15639388
 C            1.93213292        0.90774892       -3.01188036
 C            1.60386124       -0.31862530       -3.69683040
 C            0.28986767        2.73240247       -2.59814260
 C            1.06312032        1.94862471       -3.54244444
 C           -1.75397234        1.89450185       -1.51337874
 C           -2.60364298        0.78682593       -1.54670378
 C           -2.39896559       -0.24883859       -2.54596273
 C           -1.08707243        2.26696598       -2.68278933
 C           -0.64027950       -0.84966382       -4.11899185
 C            0.48527434       -0.06175677       -4.59136234
 C            0.12809966        1.33879714       -4.46814171
 C           -1.68816332        0.05834301       -3.69712110
 C           -1.18902841        1.41316796       -3.85800449
