56
Modified xyz file
 C            1.42931889       -0.30205247        4.52794269
 C            0.53702203       -1.41670526        4.26156999
 C            1.08890004       -2.17742377        3.15522958
 C            2.54855361       -0.39994014        3.60790126
 C            2.29177248       -1.50610450        2.69927584
 C            2.75148475        0.91680467        3.04339492
 C            0.71925265        0.92614753        4.20809159
 C            1.59246166        1.72965198        3.38248059
 C           -0.72901323       -0.87231248        3.80863457
 C           -0.58316116        0.56461487        3.68331092
 C            0.02164398       -2.39092801        2.19234454
 C           -1.12721112       -1.60984834        2.62073408
 C            0.33974096       -2.37888509        0.83899200
 C            2.45058010       -1.31682327        1.32688837
 C            1.64796332       -2.07126605        0.46076667
 C            2.94073530        1.01853296        1.61184883
 C            3.05281500       -0.13904189        0.85366966
 C            1.06661687        2.27251821        2.14313663
 C            2.06111240        2.06239774        1.11413763
 C           -1.04748749        1.14633798        2.50691666
 C           -0.26213367        2.07405814        1.80324811
 C           -1.84252387       -0.92991863        1.63872216
 C           -2.01853114        0.44550105        1.79376907
 C           -0.68923433       -2.15617759       -0.07628448
 C           -1.81920073       -1.44117479        0.34090404
 C           -0.42123171       -2.30223443       -1.43819275
 C            1.97144318       -2.10026343       -0.88940375
 C            0.90775396       -2.26684585       -1.87042365
 C            3.12860364        0.05267382       -0.51835616
 C            2.86059128       -1.07277873       -1.38525762
 C            1.64913743        1.98178319       -0.21825903
 C            2.42807939        1.20572195       -1.07209482
 C           -0.63813096        2.37770863        0.49815663
 C            0.29747320        2.18677437       -0.53681405
 C           -2.68500779        1.13371582        0.79128898
 C           -1.99101826        2.26730225        0.21478322
 C           -2.66264785       -0.86629561       -0.61011077
 C           -3.22028480        0.38215750       -0.32661174
 C           -1.43739260       -2.06018240       -2.35997060
 C           -2.61561689       -1.33210900       -1.92302321
 C           -1.07060366       -1.55426825       -3.67039176
 C            1.26336564       -1.47076008       -3.04157946
 C            2.29557555       -0.54999567       -2.61254172
 C            1.91343888        0.83107048       -2.37392328
 C            0.23673638       -0.95364116       -3.81356445
 C           -0.14735953        1.97082674       -1.85585755
 C            0.63629589        1.22685830       -2.75373055
 C            0.02385014        0.48662983       -3.77016701
 C           -2.44239216        2.41281833       -1.15026987
 C           -3.41217523        1.35619612       -1.38729559
 C           -1.45597235        2.32085658       -2.20063219
 C           -3.04446837       -0.47324375       -3.01917907
 C           -2.04717166       -0.55644011       -4.06822706
 C           -1.36205906        0.72696164       -4.11500912
 C           -3.26076909        0.93417397       -2.76153700
 C           -2.11951990        1.65686611       -3.30943092
