56
Modified xyz file
 C            1.26000249        0.00223297        3.61481594
 C            2.46111260       -0.29460139        2.86942406
 C            2.37944450       -1.67989127        2.43086883
 C            0.43755812       -1.19647733        3.63170461
 C            1.03625050       -2.15273557        2.71832859
 C           -0.94075192       -0.79818416        3.41497602
 C            0.42497055        1.09633448        3.16906773
 C           -0.95592307        0.63978872        3.16722072
 C            0.84687771        1.93350957        2.14118295
 C            2.77291459        0.51107225        1.70483905
 C            1.92528083        1.55335492        1.31952702
 C            2.86806579       -1.73991893        1.06603553
 C            3.28216791       -0.39553400        0.69168343
 C            2.18591763       -2.52624808        0.14679621
 C            0.26026672       -2.68820082        1.68990243
 C            0.86197960       -3.03707530        0.48054238
 C           -1.75101271       -1.62305304        2.65271469
 C           -1.13062049       -2.59516458        1.75951418
 C           -2.86944338       -1.02799034        1.95260431
 C           -1.84751274        1.19382842        2.24074084
 C           -2.82971794        0.39218210        1.65525285
 C           -0.10398542        2.81973002        1.65354801
 C           -1.49114505        2.38243796        1.60305795
 C            0.16998976        3.57138558        0.44878994
 C            2.03808961        2.05786071        0.01568619
 C            1.27000819        3.14670101       -0.38545472
 C            3.22349782       -0.00432595       -0.63815290
 C            2.70337557        1.31321662       -0.95919942
 C            2.17917235       -2.14823161       -1.25719978
 C            2.72438514       -0.92920376       -1.64606480
 C            0.07062310       -3.05812159       -0.74137469
 C            0.92031196       -2.59456476       -1.83140828
 C           -1.92015833       -2.64569394        0.53744389
 C           -3.04588792       -1.74263998        0.70135292
 C           -1.27793657       -2.70581458       -0.69606844
 C           -3.13603351        0.55598153        0.23933851
 C           -3.31100008       -0.76690373       -0.33883103
 C           -1.96144020        2.62536692        0.24976374
 C           -1.03558457        3.55428898       -0.36608742
 C           -2.48970128        1.56101927       -0.47906656
 C            0.81169731        3.21712101       -1.76317162
 C           -0.63850969        3.33115895       -1.73600934
 C            2.16736938        1.25676328       -2.31077062
 C            2.07913482       -0.14524528       -2.69007302
 C            1.15531476        2.13674405       -2.67375992
 C            0.35971547       -1.89985437       -2.89558207
 C            0.92928231       -0.62551892       -3.31004776
 C           -1.88072083       -2.10813549       -1.80435004
 C           -2.82123991       -1.01299196       -1.60915087
 C           -1.08332854       -1.79005883       -2.97598117
 C           -2.08356238        1.32828190       -1.80484024
 C           -1.17514549        2.18259625       -2.43550944
 C           -0.08882369        1.61489772       -3.21936592
 C           -0.16839892        0.28368805       -3.61058712
 C           -2.35614373        0.10220694       -2.41022036
 C           -1.41104873       -0.43137059       -3.37839597
