56
Modified xyz file
 C            1.57444783        0.06403086        4.03412573
 C            0.76712783       -1.13800867        3.90455517
 C            1.53334292       -2.08370056        3.12796204
 C            2.63600318       -0.01580408        3.04562472
 C            2.70654550       -1.39031446        2.61027624
 C            2.40114184        1.01429243        2.04670312
 C            0.73342737        1.19005085        3.68164882
 C            1.32823815        1.85956361        2.53775873
 C           -0.54385116       -0.74225491        3.41845430
 C           -0.62638560        0.70381981        3.54946952
 C           -1.08362564       -1.35605342        2.28294280
 C            0.88934452       -2.73330204        2.00480606
 C           -0.44725501       -2.47918238        1.71880721
 C            2.76502402       -1.65229830        1.18798445
 C            1.83605135       -2.73105016        0.90552500
 C            2.42856246        0.68817645        0.68791261
 C            2.83128270       -0.59535689        0.28542309
 C            1.76090448        1.52799406       -0.21669111
 C            0.47652995        2.43979649        1.60862167
 C            0.88683559        2.51091102        0.27965822
 C           -1.46489079        1.39629524        2.69242339
 C           -0.89206088        2.45639634        1.88046085
 C           -2.12393209       -0.70651329        1.59992596
 C           -2.34919574        0.64907373        1.81649621
 C           -2.70350588       -1.29026036        0.48081084
 C           -0.92589188       -3.01656840        0.53056208
 C           -2.17934803       -2.54367960       -0.00966225
 C            1.35274570       -2.85548993       -0.39628565
 C            0.00595655       -3.19446842       -0.57626227
 C            2.73691414       -0.93863992       -1.05493262
 C            2.03015940       -2.16508763       -1.40178035
 C            1.86225856        1.28472823       -1.59539463
 C            2.37512403        0.06844441       -2.02921821
 C            1.11106662        2.03434425       -2.50115946
 C            0.09747078        3.25270152       -0.59404489
 C            0.31655895        3.14063237       -2.01777134
 C           -1.82209199        2.69747419        0.79173096
 C           -2.66030052        1.50634568        0.67907431
 C           -1.33868309        3.29019923       -0.36322615
 C           -3.01827036       -0.45609161       -0.67078995
 C           -2.89733378        0.92939795       -0.57331144
 C           -2.04059114       -2.44192543       -1.45353963
 C           -0.69533816       -2.84585319       -1.80818163
 C           -2.50824090       -1.12858261       -1.85599062
 C            1.39951410       -1.96258972       -2.69197790
 C            1.71337579       -0.61298168       -3.12809157
 C           -0.03170799       -2.15003781       -2.80764154
 C            0.33247186        1.34316238       -3.52390718
 C           -1.78788442       -0.39129285       -2.79224739
 C            0.50507407       -0.02395303       -3.66977334
 C           -0.60344742       -0.91360568       -3.33221766
 C           -0.98494169        3.06922801       -2.66156874
 C           -1.98301870        2.95681697       -1.61431088
 C           -2.62341314        1.65880776       -1.73134099
 C           -1.02040854        1.84560864       -3.44012324
 C           -2.03788572        0.97665449       -2.87830146
