56
Modified xyz file
 C            1.39262449        0.04361901        4.09489176
 C            0.56994668       -1.14645426        3.95316884
 C            1.27206351       -2.07820753        3.10177758
 C            2.53926553       -0.10779110        3.21756497
 C            2.53377117       -1.46100580        2.71832820
 C            2.50556855        0.97199588        2.25097167
 C            0.61468566        1.17747179        3.62031127
 C            1.30271227        1.75805672        2.49656924
 C           -0.74698493       -0.71756727        3.54200479
 C           -0.73686040        0.72940939        3.41261616
 C           -1.43013017       -1.42914653        2.56157579
 C            0.61494376       -2.54016525        1.88749899
 C           -0.68466444       -2.13407225        1.59740861
 C            2.69047841       -1.65126155        1.29417900
 C            1.60545134       -2.50188395        0.83208323
 C            2.87491341        0.73597862        0.92600684
 C            3.07559790       -0.58562424        0.47984651
 C            2.51879067        1.72480815        0.01060933
 C            0.56654248        2.19941207        1.39866495
 C            1.29656973        2.47840166        0.25037709
 C           -1.47974838        1.26539400        2.36665559
 C           -0.80510230        1.88577763        1.29007410
 C           -2.63363238       -0.85959314        2.17030344
 C           -2.66976328        0.59486276        2.11086489
 C           -3.28115498       -1.35763001        0.98087830
 C           -1.09636871       -2.14027315        0.25648536
 C           -2.43828773       -1.93673936       -0.04277258
 C            1.20390549       -2.35787487       -0.49140422
 C           -0.14573281       -2.08329520       -0.77293491
 C            3.07814178       -0.85435732       -0.88763020
 C            2.18144913       -1.89567801       -1.36364981
 C            2.63048427        1.48580721       -1.41457240
 C            3.01724038        0.22836502       -1.84978514
 C            0.62076803        2.64652430       -1.01505009
 C            1.52450204        2.18291848       -2.06038430
 C           -1.46564224        2.06598919        0.05330411
 C           -0.73841498        2.37830281       -1.10240665
 C           -3.46273079        0.97640278        0.97225491
 C           -4.00695233       -0.24445015        0.39891438
 C           -2.81110535        1.71079081       -0.08760087
 C           -2.79673216       -1.32047425       -1.30719932
 C           -3.70521592       -0.22210513       -1.01568037
 C           -3.26188413        1.12033252       -1.33871960
 C           -0.53051688       -1.63979334       -2.05434188
 C           -1.80587619       -1.09520900       -2.25490978
 C            1.82822674       -1.59216685       -2.72767259
 C            2.45036652       -0.32043950       -3.06985441
 C            0.42633138       -1.49800188       -3.06327145
 C            1.00229974        1.71494359       -3.26112098
 C            1.47301528        0.45432202       -3.81000161
 C            0.31022029       -0.39674501       -4.00125895
 C           -1.29939052        2.13078250       -2.35542957
 C           -2.44964947        1.25571664       -2.44791033
 C           -1.94526947        0.03967740       -3.05785744
 C           -0.43320159        1.76434589       -3.46737538
 C           -0.85986409        0.44759707       -3.92539509
