56
Modified xyz file
 C            1.40014510       -0.05274836        3.89973868
 C            0.61313566       -1.26223418        3.73926814
 C            1.21382086       -2.04928917        2.67602644
 C            2.48200114       -0.10358618        2.93392951
 C            2.48934985       -1.43008323        2.34810281
 C            2.35452178        1.03814994        2.04180030
 C            0.55006390        1.06968934        3.55013898
 C            1.15185862        1.75718188        2.42615505
 C           -0.77483200       -0.86962349        3.60187037
 C           -0.80415376        0.57638435        3.39912419
 C           -1.60032326       -1.66607828        2.82203568
 C            0.39604706       -2.53642721        1.65248426
 C           -0.98944078       -2.56129444        1.84540598
 C            0.93081334       -2.73121455        0.37282242
 C            2.96876964       -1.55330249        1.05687430
 C            2.27163863       -2.43139254        0.13845821
 C            2.63258513        0.85325558        0.68486978
 C            3.25508321       -0.33870900        0.30953344
 C            1.92163651        1.60160076       -0.27049225
 C            0.32573908        2.22665244        1.42033783
 C            0.88123491        2.43534336        0.16404152
 C           -1.59474796        1.10675717        2.37967244
 C           -1.06315862        2.09475607        1.54218705
 C           -2.74634962       -1.04514841        2.18749919
 C           -2.71115026        0.38642839        1.95560102
 C           -1.88457221       -2.64844251        0.70217745
 C           -2.95727271       -1.69210597        0.90333014
 C            0.08434821       -2.97259401       -0.71104539
 C           -1.34689248       -2.78350080       -0.56677057
 C            0.44866750       -2.50650793       -2.04342638
 C            2.69747178       -2.04128553       -1.19533995
 C            3.29580031       -0.71710922       -1.08524716
 C            1.72094430       -1.99775656       -2.26899617
 C            2.10225929        1.35009095       -1.64333434
 C            2.64734136        0.13665042       -2.05152316
 C            1.87313847       -0.71649797       -2.93837880
 C            1.34970264        2.04837564       -2.58525886
 C            0.18245068        3.22748436       -0.73568085
 C            0.43185599        3.07923427       -2.15130721
 C           -1.87284986        2.62264183        0.53780034
 C           -1.25059480        3.35203172       -0.55745748
 C           -3.24906938        0.61430724        0.62480342
 C           -3.16489368       -0.64911168       -0.08874321
 C           -2.90105654        1.77512854       -0.04298765
 C           -1.77287606       -1.87416364       -1.62181540
 C           -0.71165445       -1.83512467       -2.61372287
 C           -2.46949996       -0.70817956       -1.29635833
 C            0.79330163       -0.15828303       -3.61075829
 C            0.68586445        1.29134382       -3.63448459
 C           -0.54502605       -0.68967921       -3.38052011
 C           -0.84854200        2.84304744       -2.80615535
 C           -1.87747022        2.90241236       -1.78919111
 C           -2.61801379        1.69631853       -1.46367310
 C           -2.23606418        0.46972891       -2.01489352
 C           -0.72424888        1.62983772       -3.58761154
 C           -1.43683752        0.43664081       -3.16091529
