56
Modified xyz file
 C            1.33107157       -0.24033451        3.67841499
 C            2.56660137       -0.49884442        2.96438079
 C            2.44178742       -1.79197605        2.30931724
 C            0.47205587       -1.40292881        3.52146280
 C            1.14212687       -2.34636331        2.64768610
 C           -0.85393998       -0.93391666        3.16107814
 C            0.55387246        0.93995130        3.33988753
 C           -0.81164569        0.51852218        3.07931113
 C            1.11712939        1.92963755        2.54830309
 C            3.01959147        0.45957538        1.97105994
 C            2.38973533        1.69674133        1.87239593
 C            2.79105285       -1.61694242        0.90856113
 C            3.34023697       -0.28079095        0.76099312
 C            1.94433871       -2.12467382       -0.07557205
 C            0.40374134       -2.97096678        1.65269271
 C            0.92577808       -3.00373727        0.29525934
 C           -1.60247954       -1.63208705        2.21778163
 C           -1.02859058       -2.72237373        1.55329505
 C           -2.69439802       -0.97841068        1.65346880
 C           -1.57315254        1.15778440        2.10001305
 C           -2.67968936        0.47537726        1.59240886
 C            0.26473733        2.67361291        1.64028962
 C           -1.04325844        2.24969868        1.39858664
 C            2.34031978        2.37682286        0.58716678
 C            1.09386165        3.12344599        0.53180147
 C            3.25028046        0.34684411       -0.47303439
 C            2.81124124        1.73312635       -0.55242272
 C            1.93857248       -1.54847997       -1.35025225
 C            2.64679022       -0.36828947       -1.58371196
 C            1.03460600       -1.99932574       -2.31099239
 C           -0.20179449       -3.22545812       -0.59408313
 C           -1.41935132       -3.04316442        0.18459089
 C           -0.13463287       -2.75510265       -1.89770941
 C           -3.27442911       -1.47240211        0.41829883
 C           -2.51824064       -2.41274201       -0.38424147
 C           -3.27934126        0.87829694        0.33060509
 C           -3.59826979       -0.32573814       -0.41453031
 C           -1.71457039        2.75306069        0.28498693
 C           -2.74796711        1.95919714       -0.35218162
 C            0.49826544        3.38558465       -0.69546056
 C           -0.95101193        3.39350348       -0.77392763
 C            2.12029426        1.90903132       -1.82190712
 C            2.11650284        0.62494325       -2.50628176
 C            1.00590430        2.73928154       -1.89778778
 C            0.61955551       -1.10086624       -3.37478311
 C            1.05497909        0.28407416       -3.33473705
 C           -1.30303340       -2.13619864       -2.50716191
 C           -2.42554435       -1.87287911       -1.73254602
 C           -2.98310074       -0.52700882       -1.71454722
 C           -0.83345757       -1.11421457       -3.42485653
 C           -2.37508984        1.80317473       -1.75175956
 C           -1.33914149        2.78170248       -2.03500789
 C           -0.13336456        2.35200687       -2.71784454
 C           -0.13386349        1.12316879       -3.36704868
 C           -2.28574482        0.52620338       -2.30740724
 C           -1.29592701        0.25184676       -3.25230134
