56
Modified xyz file
 C            1.53641662       -0.02245037        3.80679108
 C            0.68500037       -1.19500354        3.71971473
 C            1.20495488       -2.05257499        2.67112493
 C            2.54069031       -0.12495383        2.76217248
 C            2.38626181       -1.40452927        2.11286844
 C            2.45295808        1.05833846        1.94215922
 C            0.71475180        1.14044480        3.51755115
 C            1.31201621        1.83900303        2.40379881
 C           -0.68413030       -0.74039680        3.61980212
 C           -0.65450797        0.69981812        3.38427310
 C           -1.57693098       -1.51456540        2.89440102
 C            0.31787410       -2.70005042        1.80604989
 C           -1.06058619       -2.48985023        1.93754253
 C            0.80836123       -3.14191175        0.57731641
 C            2.59843793       -1.49647835        0.74287219
 C            2.09012957       -2.63411283        0.12560010
 C            2.65725177        0.94463799        0.57055594
 C            2.80422548       -0.32513963       -0.01419850
 C            2.22961068        2.01335112       -0.21396587
 C            0.48801494        2.42272937        1.44679837
 C            1.09673179        2.79492641        0.25144180
 C           -1.44130928        1.23847670        2.36730484
 C           -0.89520161        2.17210719        1.46881076
 C           -2.70899745       -0.85150609        2.27586773
 C           -2.62216345        0.57684867        2.03650868
 C           -1.88217735       -2.40818749        0.73644297
 C           -2.96256803       -1.48986423        0.99430450
 C           -0.06956047       -3.12464481       -0.58173221
 C           -1.25519872       -2.40794280       -0.50384595
 C            2.12403073       -2.75918988       -1.31504696
 C            0.76008114       -3.01642947       -1.75771107
 C            2.95554902       -0.41384921       -1.40206925
 C            2.64167626       -1.65366464       -2.08759185
 C            2.12216328        1.87406371       -1.65523696
 C            2.47869150        0.67007594       -2.24692323
 C            0.29378624        3.15899272       -0.89907351
 C            0.91478510        2.56865877       -2.08142937
 C           -1.70075459        2.68319497        0.44542536
 C           -1.08730129        3.19678490       -0.77085570
 C           -3.24306841        0.81885972        0.75128119
 C           -3.21663976       -0.44646582        0.03063367
 C           -2.91254065        1.97218290        0.06161091
 C           -1.52413034       -1.38193669       -1.43633672
 C           -2.60062140       -0.49417579       -1.21745310
 C            0.42386974       -2.02156793       -2.74611754
 C            1.65939636       -1.34839199       -3.11231226
 C            1.63089925        0.09296297       -3.28375816
 C           -0.72907989       -1.25408690       -2.59602524
 C            0.13017167        2.02798684       -3.09530270
 C            0.40760786        0.68503341       -3.57197752
 C           -0.80250051       -0.09430346       -3.36182472
 C           -1.92339886        2.81216423       -1.89346775
 C           -2.94840229        1.91857610       -1.38817384
 C           -2.76203657        0.62745363       -2.02864531
 C           -1.31479740        2.16769153       -3.04221859
 C           -1.88779197        0.83286038       -3.15773105
