56
Modified xyz file
 C            1.51127258       -0.11865035        4.20047595
 C            0.69746987       -1.30787759        4.37193359
 C            1.14376027       -2.29553189        3.40581712
 C            2.46540793       -0.37995700        3.13639548
 C            2.20940599       -1.70428632        2.61101551
 C            2.40572955        0.73468962        2.21365190
 C            0.64386722        0.95401170        3.74442443
 C            1.26957571        1.55610034        2.59035411
 C           -0.66944786       -0.96182800        4.02873013
 C           -0.69272882        0.42491179        3.58549614
 C           -0.03119437       -2.80419809        2.71869007
 C           -1.16723503       -1.98246885        3.12324632
 C            0.10458345       -3.17765606        1.38602010
 C            2.18112338       -1.86792669        1.22902397
 C            1.33122875       -2.83280565        0.68688101
 C            2.58610676        0.49093921        0.85571341
 C            2.64893099       -0.83697656        0.40643526
 C            2.16162436        1.48306902       -0.03229838
 C            0.46702012        2.02406271        1.56076363
 C            1.09877098        2.30624144        0.35628430
 C           -1.40500828        0.74177582        2.42920337
 C           -0.89610655        1.68939404        1.52995556
 C           -2.10115672       -1.59733652        2.17140144
 C           -2.33907716       -0.17565901        1.96826483
 C           -0.99337181       -2.96136544        0.45550240
 C           -2.09323887       -2.22145212        0.85780498
 C            1.02422344       -2.80184456       -0.73266653
 C           -0.42266848       -2.72566681       -0.86432919
 C            2.73716290       -1.07855402       -0.96331197
 C            1.81132798       -2.02624495       -1.56537006
 C            2.50186610        1.36247196       -1.37587978
 C            2.85689455        0.04977308       -1.87084792
 C            1.69122895        2.01177158       -2.39199041
 C            0.37294774        3.01444941       -0.58988510
 C            0.73351516        2.93667924       -1.99395226
 C           -1.63768106        2.02622759        0.38457263
 C           -1.07204238        2.95642502       -0.49561430
 C           -2.87799393       -0.01806614        0.63706585
 C           -2.67905733       -1.27326243       -0.06914142
 C           -2.64959866        1.15746365       -0.06630940
 C           -0.98906371       -1.77037613       -1.71446492
 C           -2.23670236       -1.21006437       -1.38704130
 C            1.18801764       -1.36389213       -2.69507509
 C            2.02018277       -0.22332800       -3.02640673
 C            1.36615323        1.01369945       -3.40846034
 C           -0.19850079       -1.21544041       -2.73710237
 C            0.06850056        0.93763291       -3.89994621
 C           -0.72831575       -0.24366556       -3.58628255
 C           -0.48728734        3.08775255       -2.76838338
 C           -1.60447340        3.13104963       -1.83459662
 C           -0.79305247        2.09952529       -3.78435015
 C           -2.96780723        1.10854527       -1.42337396
 C           -2.72066203       -0.13917356       -2.13062768
 C           -2.09227676        0.18555883       -3.38773287
 C           -2.60569637        2.20198871       -2.29715063
 C           -2.14645344        1.62934537       -3.55253196
