56
Modified xyz file
C          1.11312       -0.25358        4.02204
C          2.19364       -0.49056        3.20236
C          2.06094       -1.70319        2.62767
C          0.29088       -1.45645        4.08582
C          0.87151       -2.30344        3.02458
C         -1.08131       -0.99082        3.88046
C          0.33157        0.85717        3.71815
C         -0.98419        0.42732        3.66536
C          0.77084        1.80732        2.77110
C          2.64254        0.38874        2.23529
C          1.96874        1.60945        2.06531
C          2.51292       -1.66166        1.32439
C          2.94823       -0.33962        1.07784
C          1.85174       -2.37727        0.29864
C          0.07571       -2.78691        1.96374
C          0.57690       -2.93418        0.66093
C         -1.82368       -1.43608        2.69812
C         -1.26988       -2.39767        1.82408
C         -1.80670        0.84417        2.63000
C         -2.38770       -0.31313        2.05098
C         -0.11575        2.41738        1.88831
C         -1.46491        1.93806        1.78485
C          1.84669        2.18813        0.81066
C          0.57447        2.79472        0.72958
C          2.89239        0.22410       -0.22610
C          2.41326        1.59698       -0.36610
C          1.99080       -1.91326       -1.02648
C          2.58885       -0.66516       -1.30874
C          1.01581       -2.11689       -2.01047
C         -0.47528       -2.87424       -0.25261
C         -1.59663       -2.43104        0.47365
C         -0.30030       -2.55281       -1.61447
C         -2.78900       -0.31541        0.68312
C         -2.48443       -1.48681       -0.12600
C         -2.06177        2.01373        0.51212
C         -2.80221        0.93741       -0.01023
C         -0.06428        3.00233       -0.50973
C         -1.46136        2.65340       -0.58020
C          1.87403        1.99946       -1.61845
C          0.69299        2.78255       -1.69229
C          2.10183       -0.21556       -2.52726
C          1.17101       -1.15689       -3.01840
C          1.86163        1.15879       -2.74507
C          0.07364       -0.73158       -3.80126
C         -1.39051       -1.95040       -2.29669
C         -2.42332       -1.34094       -1.53966
C         -1.18703       -1.15560       -3.40598
C         -2.78445        1.02825       -1.39440
C         -2.00921        2.14779       -1.76505
C         -2.72927       -0.13467       -2.19149
C         -2.02926       -0.09711       -3.38176
C          0.07742        2.46061       -2.88476
C          0.80422        1.53382       -3.55041
C         -0.05984        0.62220       -4.10262
C         -1.26881        2.13501       -2.96872
C         -1.33722        1.01405       -3.79373

