56
Modified xyz file
 C            1.33226571       -0.06402068        4.49999595
 C            0.51986391       -1.23671183        4.23602251
 C            1.31094849       -2.15815097        3.44284272
 C            2.55830290       -0.19258174        3.72789413
 C            2.52383043       -1.46557010        3.03767859
 C            2.70441472        1.01272118        2.94321799
 C            0.61243319        1.09484780        3.99513802
 C            1.52842176        1.84438391        3.17346177
 C           -0.75060786       -0.78453309        3.69988951
 C           -0.62603041        0.63251044        3.39694447
 C           -1.40566181       -1.58791753        2.78146894
 C            0.70956481       -2.73293656        2.25100955
 C           -0.66118737       -2.62773544        2.07127033
 C            2.58148398       -1.49297220        1.58329148
 C            1.57863999       -2.43701884        1.12536033
 C            2.87573934        0.91215676        1.50203650
 C            2.78114747       -0.32046851        0.84827928
 C            1.07255611        2.29716209        1.87525471
 C            2.15034210        2.03503382        0.94676270
 C           -1.01614314        1.09495548        2.13229235
 C           -0.22959328        2.03227428        1.44397395
 C           -2.24939436       -0.94636414        1.79477752
 C           -1.99605475        0.37975187        1.43551637
 C           -1.18840139       -2.67378512        0.71795265
 C           -2.42914180       -1.92671991        0.74593308
 C            1.03022705       -2.23978679       -0.13754965
 C           -0.32903565       -2.49660124       -0.36790952
 C            2.41942838       -0.31395151       -0.50450070
 C            1.71848019       -1.41267559       -1.01758376
 C            1.81803832        1.99100844       -0.39174089
 C            2.29386237        0.92402997       -1.14339469
 C           -0.49945718        2.27755555        0.09464761
 C            0.58872256        2.52197009       -0.75265454
 C           -2.41608702        0.81578218        0.17582354
 C           -1.71063424        1.84936605       -0.45255390
 C           -2.94310708       -1.48477225       -0.45409057
 C           -3.19102969       -0.06486687       -0.58624953
 C           -0.88875497       -2.15893173       -1.60819485
 C           -2.25263480       -1.86036594       -1.67282022
 C            1.32521522       -1.40895905       -2.34788598
 C           -0.04575727       -1.77729061       -2.65446382
 C            2.06451152        0.95705423       -2.51675291
 C            1.68387012       -0.27548454       -3.17740923
 C            0.37573831        2.74692864       -2.10525935
 C            1.21269423        2.01640444       -3.04265143
 C           -2.03496916        2.23822841       -1.75513129
 C           -0.97932186        2.73905076       -2.61510583
 C           -3.38070403        0.16441799       -2.00349160
 C           -2.75202711       -0.95553773       -2.69594920
 C           -2.87039429        1.38519871       -2.57788672
 C           -0.52380636       -0.88434571       -3.70460502
 C            0.56721280        0.00789162       -4.06437355
 C            0.35026687        1.44340004       -4.06098911
 C           -0.99020710        1.95548744       -3.84328630
 C           -1.83149454       -0.40941713       -3.67132885
 C           -2.09658434        1.02090117       -3.75292353
