56
Modified xyz file
 C            1.34152484        0.00437651        4.06125002
 C            0.56326347       -1.19552891        3.82425889
 C            1.18718176       -1.94072843        2.74605961
 C            2.49542964       -0.03933877        3.18476460
 C            2.39048961       -1.22068775        2.34780792
 C            2.57920248        1.24486247        2.52923511
 C            0.52724208        1.13807621        3.65066061
 C            1.25986228        1.85766563        2.63766979
 C           -0.81000552       -0.78320786        3.65096729
 C           -0.78219391        0.63570392        3.31351985
 C           -1.63317318       -1.60305909        2.90022233
 C            0.37391387       -2.50738807        1.76483341
 C           -1.01326356       -2.51831992        1.94249947
 C            0.90255204       -2.70951361        0.49315698
 C            2.70508688       -1.11250885        0.99331004
 C            2.10454943       -1.99027640        0.09533562
 C            3.20775481        1.29370071        1.29801037
 C            3.29728840        0.06106353        0.51583070
 C            2.78927749        2.33945074        0.38973355
 C            0.60833290        2.26384361        1.47150929
 C            1.40972473        2.78727743        0.46547650
 C           -1.40301235        1.06022045        2.13719332
 C           -0.65661051        1.73306629        1.14939709
 C           -2.74378391       -0.97146729        2.22102016
 C           -2.57432597        0.40324187        1.78408045
 C           -1.89298073       -2.60793426        0.78316427
 C           -3.04469755       -1.76734071        1.05088501
 C            0.02013363       -2.78526156       -0.66213444
 C           -1.35245253       -2.61534170       -0.50274385
 C            1.96533539       -1.62127215       -1.30594566
 C            0.70139180       -2.16035858       -1.78672632
 C            3.16659356        0.41966263       -0.89142067
 C            3.01966105        1.86151041       -0.95625433
 C            2.39660779       -0.37197119       -1.74360482
 C            0.90928474        2.86423570       -0.88644142
 C            1.96425250        2.39805600       -1.78295331
 C           -1.16550385        1.85636156       -0.16526884
 C           -0.40715371        2.50877637       -1.15700597
 C           -3.06527618        0.48584130        0.42904260
 C           -3.47223522       -0.85509384        0.01638457
 C           -2.41990057        1.30429187       -0.49083020
 C           -2.10520310       -2.10864959       -1.56706299
 C           -3.23639715       -1.22390097       -1.29562271
 C           -0.03446852       -1.45200476       -2.72932603
 C           -1.42284825       -1.60039986       -2.74999654
 C            1.77640157        0.21406822       -2.85179882
 C            1.58766809        1.66279544       -2.89227381
 C            0.58084669       -0.40138524       -3.41317158
 C           -0.75115464        2.37826267       -2.50195112
 C            0.26500510        1.90942945       -3.42501934
 C           -0.21703440        0.66672104       -3.99258606
 C           -2.79534168        1.15500157       -1.82535910
 C           -3.19800521       -0.16282571       -2.27883789
 C           -2.26577000       -0.55924403       -3.31450209
 C           -1.98161119        1.72377740       -2.87063408
 C           -1.65145523        0.65366808       -3.80780742
