56
Modified xyz file
 C            1.40841255       -0.06279178        4.15578869
 C            0.60001035       -1.26953689        4.10367691
 C            1.39590561       -2.29735892        3.46859643
 C            2.54062264       -0.25807048        3.26815314
 C            2.57471182       -1.65557021        2.90143228
 C            2.44813938        0.72905877        2.21022595
 C            0.61263612        1.02818163        3.61892501
 C            1.31508068        1.59063944        2.48495453
 C           -0.68666524       -0.91430614        3.52730110
 C           -0.72837133        0.53602914        3.39470915
 C           -1.26426756       -1.70040693        2.52399811
 C            0.78462554       -3.09689832        2.42599493
 C           -0.54967914       -2.76025225        1.95608415
 C            2.62412421       -1.99791456        1.49353144
 C            1.66651682       -3.06055212        1.27192451
 C            2.66336596        0.35762954        0.88938626
 C            2.70903613       -0.99812669        0.52830778
 C            2.29487073        1.27277928       -0.09323938
 C            0.55963664        2.03371346        1.40226273
 C            1.15411822        2.06093932        0.13421304
 C           -1.45493918        1.07252063        2.34002370
 C           -0.83600063        2.00536982        1.49688498
 C           -2.30824366       -1.14467428        1.78925744
 C           -2.48836654        0.29579547        1.83065606
 C           -2.49224429       -1.54658536        0.40503798
 C           -0.54766106       -2.92570012        0.50803530
 C            0.83743823       -2.98836094        0.07933662
 C           -1.45072371       -2.19272870       -0.25554263
 C            2.35027017       -1.33365433       -0.77645563
 C            1.23354879       -2.15915617       -0.96314533
 C            2.67914071        0.97636685       -1.39359563
 C            2.67731796       -0.42318533       -1.77300546
 C            2.12392379        1.74099290       -2.48630828
 C            0.43714678        2.61390771       -0.93799094
 C            0.91279848        2.49411446       -2.24459231
 C           -1.57771735        2.57084646        0.46509321
 C           -0.88836349        2.99387698       -0.74132296
 C           -3.14411646        0.69919477        0.60084797
 C           -3.21467568       -0.47672327       -0.26207245
 C           -2.82233796        1.93618478        0.05826271
 C           -3.07643244       -0.33415236       -1.63637675
 C           -1.07641679       -1.76000062       -1.53383924
 C            0.27279041       -1.79710397       -1.90958197
 C           -1.99683202       -1.04462617       -2.30248793
 C            2.00249607       -0.52606975       -3.05054026
 C            1.86915754        0.81870127       -3.58013880
 C            0.69639654       -1.15230344       -3.06927166
 C           -0.01699714        2.18274994       -3.32477280
 C           -1.54267532       -0.22241147       -3.41252903
 C            0.48917695        0.99512236       -3.98880191
 C           -0.20719595       -0.26404806       -3.78231952
 C           -1.82723407        2.88105870       -1.84483116
 C           -2.98838775        2.14806527       -1.36792136
 C           -3.16986896        0.99160343       -2.22411998
 C           -1.38117918        2.26312169       -3.08026512
 C           -2.19582296        1.07470558       -3.29783362
