56
Modified xyz file
 C            1.39455670       -0.27733693        4.51375180
 C            0.47727657       -1.37417128        4.28754507
 C            1.01190836       -2.17089630        3.19781863
 C            2.47745647       -0.40712758        3.55186574
 C            2.10896859       -1.43961020        2.60254288
 C            2.73789429        0.91574312        3.05017628
 C            0.69148770        0.95207213        4.18904720
 C            1.62495226        1.77099340        3.46091353
 C           -0.77409366       -0.80920725        3.81187917
 C           -0.55763575        0.59490374        3.54128970
 C           -0.10194857       -2.49513706        2.34308380
 C           -1.20821246       -1.63625007        2.71307089
 C            0.12331658       -2.60940977        0.98244560
 C            2.04206422       -1.14874227        1.23358749
 C            1.21882339       -1.93382874        0.42002399
 C            2.88008062        1.09743513        1.61998282
 C            2.54470117        0.06354950        0.73476852
 C            1.16626078        2.43463612        2.25960001
 C            2.31012425        2.40163889        1.37749508
 C           -0.84154006        1.07446440        2.25661268
 C           -0.08593522        2.12471102        1.71270308
 C           -1.87700786       -1.04090685        1.65419358
 C           -1.69507577        0.33453917        1.42591490
 C           -1.01596510       -2.70610253        0.19861668
 C           -2.07333522       -1.84932585        0.54063226
 C           -0.80721799       -3.05290660       -1.12523122
 C            1.22048599       -1.71972719       -0.96174913
 C            0.41044575       -2.55509969       -1.73419112
 C            2.30880115        0.41587314       -0.60494559
 C            1.60148761       -0.45837990       -1.45224755
 C            2.08949200        2.75075485        0.07012261
 C            2.42188420        1.76911806       -0.93976151
 C           -0.31398139        2.52506054        0.38975343
 C            0.74635939        3.15196690       -0.27684333
 C           -2.07283092        0.86370086        0.18544785
 C           -1.35186797        1.93733118       -0.35218626
 C           -2.90568678       -1.34573354       -0.44660733
 C           -2.89569021        0.09006187       -0.64400100
 C           -1.88763833       -2.90881442       -2.07617017
 C           -2.95382148       -1.99192942       -1.74299325
 C            0.09946963       -2.19048184       -3.09545297
 C           -1.30463805       -2.48959258       -3.33654186
 C            1.17912041       -0.02566364       -2.73154846
 C            0.33741856       -0.82875882       -3.49886188
 C            1.79866127        2.26888154       -2.14395552
 C            0.76465896        3.21034134       -1.72022366
 C            1.17755896        1.33140261       -3.04013438
 C           -1.53695693        2.29228444       -1.69442635
 C           -0.44371386        2.88606478       -2.43402354
 C           -0.07186633        1.93548321       -3.46357064
 C           -2.94361837        0.33617677       -2.07721641
 C           -2.98591532       -0.95194810       -2.75570881
 C           -1.95956516       -1.25647976       -3.73504814
 C           -0.92733428       -0.26939969       -3.96773262
 C           -2.16866565        1.35654938       -2.60697489
 C           -1.20395717        1.05722977       -3.66653768
