56
Modified xyz file
 C            1.33667457       -0.26107265        3.67812736
 C            2.58724642       -0.51138039        2.98799276
 C            2.47756566       -1.79891130        2.31815672
 C            0.49376465       -1.43435633        3.51346479
 C            1.17243953       -2.35777122        2.62526112
 C           -0.83985077       -0.97961131        3.16441972
 C            0.55122112        0.90777387        3.31871031
 C           -0.81323686        0.47293099        3.07865205
 C            1.10222549        1.88380925        2.50235125
 C            3.05988128        0.45440659        2.01110129
 C            2.40109506        1.67286166        1.87222317
 C            2.85343099       -1.60626854        0.92691962
 C            3.45048350       -0.28686130        0.82249345
 C            2.00134306       -2.05568101       -0.08138396
 C            0.44486323       -2.95712121        1.60679917
 C            0.96578493       -2.93151456        0.24770675
 C           -1.58929335       -1.68525742        2.22762506
 C           -0.99292296       -2.73659488        1.52087398
 C           -2.70597357       -1.04794643        1.69456484
 C           -1.59558710        1.09904919        2.10739138
 C           -2.71379992        0.40630789        1.64312842
 C            0.24985203        2.57016802        1.54973717
 C           -1.06971797        2.16325485        1.35978601
 C            2.37885007        2.32929945        0.57436847
 C            1.05717757        2.91483261        0.38967595
 C            3.44772024        0.34784394       -0.41057302
 C            3.02666221        1.73846339       -0.50224912
 C            2.02337431       -1.43067945       -1.33363782
 C            2.87542190       -0.34780220       -1.54852370
 C            1.04283315       -1.72401676       -2.28288947
 C           -0.16263768       -3.09731841       -0.65227475
 C           -1.38035016       -3.01210422        0.14165953
 C           -0.11404502       -2.52013464       -1.91231624
 C           -3.29977296       -1.54244670        0.46629369
 C           -2.51410902       -2.40949105       -0.38784094
 C           -3.37607296        0.80954634        0.41551752
 C           -3.72623654       -0.39667536       -0.31911460
 C           -1.72477526        2.60588464        0.21145576
 C           -2.90105682        1.90933290       -0.28025910
 C            0.45669326        2.93550687       -0.86943037
 C           -0.93229649        3.01913819       -0.93867507
 C            2.49991352        1.94750508       -1.83756119
 C            2.51041746        0.66426011       -2.52387751
 C            1.17355877        2.51775558       -1.99394878
 C            0.59281375       -0.69105710       -3.20633287
 C            1.25462816        0.52977990       -3.24026226
 C            0.50365930        1.76017856       -3.04282787
 C           -1.29714177       -1.87725322       -2.46469702
 C           -2.46531014       -1.80757775       -1.71291510
 C           -3.23389840       -0.57183994       -1.67606766
 C           -0.86087351       -0.72557501       -3.23972491
 C           -2.80695853        1.84184279       -1.73024414
 C           -1.61333058        2.56231584       -2.13729712
 C           -0.88470800        1.73576314       -3.08024332
 C           -2.79359006        0.54235294       -2.38273717
 C           -1.58404880        0.46215577       -3.18855222
