56
Modified xyz file
 C            1.30818856       -0.05275856        3.73316572
 C            2.58215029       -0.24766177        3.06708363
 C            2.56099181       -1.56976511        2.46784349
 C            0.45889813       -1.19403921        3.41559416
 C            1.19090654       -2.05473011        2.51709114
 C           -0.82276954       -0.68194532        2.98960693
 C            0.54072902        1.14858337        3.45809984
 C           -0.84357597        0.73512630        3.30304472
 C            1.06101881        2.12340682        2.61076896
 C            2.99859827        0.69219862        2.04148470
 C            2.27327587        1.86385005        1.84202677
 C            3.21516778       -1.48760802        1.17240173
 C            3.46218536       -0.07794961        0.89629004
 C            2.74058302       -2.30751471        0.15644837
 C            0.60051745       -2.48249419        1.33131472
 C            1.45950952       -2.96570612        0.34923312
 C           -1.37326854       -1.10885757        1.78380862
 C           -0.67980995       -2.02138319        0.96653907
 C           -2.45192145       -0.38786123        1.26705028
 C           -1.72256958        1.54646342        2.60144129
 C           -2.68306408        0.91430467        1.71460572
 C            0.15777605        2.88920317        1.76656872
 C           -1.21426110        2.72396409        1.90880627
 C            2.06493801        2.36940621        0.49330840
 C            0.73019533        2.93766116        0.42734540
 C            3.27979076        0.41904228       -0.39163020
 C            2.55552256        1.66508081       -0.59511202
 C            2.76682135       -1.83898579       -1.21906792
 C            2.92869289       -0.48508524       -1.47708960
 C            0.94150668       -3.29093342       -0.95702901
 C            1.74805800       -2.57827101       -1.94023217
 C           -1.24678736       -2.42704146       -0.25412748
 C           -0.44477007       -2.99978730       -1.24059043
 C           -3.06886204       -0.81896915        0.09882059
 C           -2.48173737       -1.91550460       -0.64427073
 C           -3.55848483        0.16568761       -0.85955741
 C           -3.09339323        1.92291241        0.75806319
 C           -2.06073913        2.94475272        0.74870520
 C           -3.32555734        1.51306600       -0.61299925
 C           -0.08330354        2.69869126       -0.68273812
 C           -1.45419443        2.92941997       -0.57008863
 C           -2.37753853        2.24071729       -1.45257983
 C            1.72556322        1.51593747       -1.77759530
 C            1.98983635        0.20588001       -2.35212349
 C            0.42333334        2.01205167       -1.79481316
 C            0.83047756       -1.86620670       -2.81389975
 C           -0.48146227       -2.45274379       -2.58556649
 C            0.94723786       -0.48367928       -2.97277724
 C           -2.72618657       -1.67073441       -2.05882554
 C           -3.32123731       -0.35224484       -2.19270118
 C           -1.61076570       -1.75646571       -2.98645912
 C           -1.88275347        1.64837724       -2.60623428
 C           -0.44360337        1.53133351       -2.77620372
 C           -0.16520558        0.24219154       -3.39402890
 C           -2.49224410        0.42229233       -3.09572271
 C           -1.43240395       -0.44467459       -3.58249712
