56
Modified xyz file
 C            1.46517288        0.05468786        4.19606828
 C            0.62419351       -1.09470154        3.90481169
 C            1.37273384       -1.95893197        3.02494175
 C            2.54231724        0.06405141        3.21992473
 C            2.56640443       -1.23783538        2.59874107
 C            2.36896290        1.23080627        2.37386859
 C            0.66781288        1.24689286        3.98000809
 C            1.34491970        2.06291385        2.98682035
 C           -0.66623341       -0.60277552        3.45759845
 C           -0.69830916        0.82858664        3.71634905
 C           -1.23710757       -1.09350569        2.27976818
 C            0.72430437       -2.45239585        1.82713872
 C           -0.59566685       -2.10970593        1.54321455
 C            2.61331169       -1.31124880        1.15267456
 C            1.68822896       -2.34823518        0.75514086
 C            2.39679856        1.10177152        0.98226545
 C            2.64894017       -0.14962441        0.38473343
 C            1.88252773        2.15139831        0.21138636
 C            0.57049474        2.87620857        2.17062142
 C            0.88571573        2.96086812        0.75463631
 C           -1.48388967        1.63514345        2.90413403
 C           -0.87869731        2.80639780        2.28726693
 C           -2.28079388       -0.36369194        1.69789184
 C           -2.33715889        1.01390713        1.90536476
 C           -2.89593468       -0.85592250        0.55275711
 C           -1.06874757       -2.42576543        0.26752422
 C           -2.37129712       -2.05945535       -0.04797135
 C            1.19991329       -2.30467240       -0.53878630
 C           -0.13274148       -2.64888844       -0.75636041
 C            2.45531846       -0.29686538       -0.99074047
 C            1.82769210       -1.46456537       -1.45633736
 C            1.94230452        2.06688111       -1.17472150
 C            2.45080593        0.85360317       -1.76968210
 C            0.74559358        2.41328963       -1.92406182
 C           -0.36311357        3.10520920        0.02006487
 C           -1.44681845        2.96041905        0.95671553
 C           -2.38077837        1.88633312        0.74047280
 C           -0.45195822        2.50107824       -1.22841823
 C           -3.12796277        0.07328430       -0.54102311
 C           -2.45888774        1.28871333       -0.51185723
 C           -1.46916322        1.55443794       -1.48464714
 C           -2.81742662       -2.06166494       -1.42850941
 C           -3.16932534       -0.68834298       -1.76360548
 C           -0.54862451       -2.84805245       -2.07262293
 C           -1.91236013       -2.53741174       -2.45014136
 C            1.50056511       -1.61010815       -2.80429377
 C            0.30727257       -2.36963224       -3.14874196
 C            1.94371415        0.81460876       -3.12846826
 C            0.79124870        1.70428360       -3.17771726
 C            1.53221939       -0.45647474       -3.68003849
 C           -1.42909904        0.78691993       -2.67101593
 C           -2.31729647       -0.27745579       -2.85397228
 C           -1.84522035       -1.50641245       -3.47122563
 C           -0.50812362       -1.53842351       -4.02603637
 C           -0.35289420        0.90928840       -3.55537161
 C            0.18614307       -0.27921747       -4.19653623
