56
Modified xyz file
 C            1.32502121       -0.08993831        3.67168439
 C            2.58226139       -0.30095405        2.98087667
 C            2.50726987       -1.58609796        2.30696758
 C            0.48614655       -1.25430417        3.43317433
 C            1.16181093       -2.10876923        2.48412746
 C           -0.83978992       -0.78744792        3.10131660
 C            0.54252442        1.09640805        3.36404384
 C           -0.81103634        0.66723135        3.05659614
 C            1.11129251        2.12247573        2.62236443
 C            3.02023441        0.68633652        2.01204069
 C            2.42201958        1.94061214        2.00429515
 C            3.01473869       -1.41755435        0.95647101
 C            3.24953907        0.00223826        0.74502126
 C            2.43141484       -2.15715032       -0.05890920
 C            0.46473577       -2.55299964        1.36404037
 C            1.19316330       -2.86921396        0.21678004
 C           -1.57440850       -1.45232264        2.12808545
 C           -0.92238663       -2.36204280        1.27359095
 C           -2.72101459       -0.79760564        1.69037528
 C           -1.55571706        1.31787136        2.06928493
 C           -2.67901759        0.65042418        1.57548566
 C            0.27883905        2.85449096        1.68551671
 C           -0.96835676        2.34749916        1.31969744
 C            2.43044605        2.69747978        0.76750120
 C            1.15627282        3.38780090        0.65764859
 C            2.85119577        0.60674105       -0.45102201
 C            2.64881617        1.98756765       -0.47929081
 C            2.29099114       -1.56062828       -1.37317569
 C            2.41604473       -0.17921426       -1.52484973
 C            0.50969572       -3.06103565       -1.05108137
 C            1.21497809       -2.27106373       -2.05130301
 C           -1.59933241       -2.90128350        0.17530531
 C           -0.87648413       -3.12308482       -1.06587635
 C           -3.47944303       -1.31885906        0.57508100
 C           -2.91957403       -2.41544021       -0.18067138
 C           -3.23745278        1.00248082        0.28069507
 C           -3.72307380       -0.21656387       -0.34203770
 C           -1.50100304        2.70750746        0.07993970
 C           -2.58049485        1.93402340       -0.50294736
 C            0.73355881        3.31721431       -0.73005091
 C            1.74413178        2.56271603       -1.45913162
 C           -0.61105965        3.10163727       -1.00307348
 C            1.86327378        0.43317068       -2.64939154
 C            1.37349402        1.79673076       -2.55435282
 C            0.50309565       -1.63029754       -3.05708557
 C            0.92411804       -0.30522435       -3.47722015
 C           -1.61902332       -2.47158414       -2.13610579
 C           -2.87929065       -2.01456527       -1.57804843
 C           -3.19960241       -0.59835796       -1.64153231
 C           -0.95136267       -1.64532056       -3.03261589
 C           -2.18823765        1.57956443       -1.86100822
 C           -0.99470082        2.34998499       -2.18820978
 C           -0.01278389        1.79386743       -2.99775873
 C           -0.26681761        0.51567076       -3.63431463
 C           -2.33164025        0.26307871       -2.30994769
 C           -1.40801982       -0.27389998       -3.20699506
