56
Modified xyz file
 C            1.29369066        0.04464930        4.12717821
 C            0.48198878       -1.14388881        3.92472898
 C            1.27900384       -2.09967678        3.19593186
 C            2.48118397       -0.08900601        3.30072488
 C            2.52744718       -1.44806754        2.82032480
 C            2.46602785        0.98214002        2.32478263
 C            0.53847862        1.18549249        3.63695983
 C            1.31446069        1.82974278        2.60504687
 C           -0.77977404       -0.72499405        3.35025068
 C           -0.78517739        0.73005826        3.28723116
 C           -1.34515151       -1.43550109        2.28879311
 C            0.71884579       -2.69067235        1.99608798
 C           -0.59309931       -2.41513947        1.61254588
 C            2.72011631       -1.66662466        1.40109545
 C            1.75834504       -2.67090467        0.98177886
 C            2.79515192        0.72765580        0.99098231
 C            2.97653125       -0.59555089        0.54502942
 C            2.49314858        1.73414551        0.07422367
 C            0.64621076        2.40107042        1.52747150
 C            1.39765572        2.63835959        0.38099123
 C           -1.43586486        1.32964535        2.21473662
 C           -0.74800389        2.26082071        1.41731617
 C           -2.42544710       -0.82851480        1.64946448
 C           -2.50019208        0.62265839        1.66465646
 C           -2.86684527       -1.28264212        0.34424458
 C           -0.96849749       -2.82578519        0.33475588
 C           -2.14413146       -2.26729797       -0.30802688
 C            1.39346905       -2.71718992       -0.36123769
 C            0.06198493       -2.99910799       -0.68058225
 C            2.95446055       -0.87857699       -0.81999177
 C            2.19667997       -2.03583194       -1.27517088
 C            2.45404683        1.45405890       -1.34871173
 C            2.76697018        0.18286483       -1.79273425
 C            0.73771943        2.98901441       -0.86105232
 C            1.31152699        2.16246097       -1.91528850
 C           -1.39995991        2.82287668        0.31559144
 C           -0.62599227        3.22860984       -0.84876088
 C           -3.09936175        1.06165139        0.42044981
 C           -3.34715211       -0.12347650       -0.39377578
 C           -2.64012543        2.23268883       -0.16545592
 C           -3.19482025       -0.07090303       -1.77607330
 C           -1.86624007       -2.14465363       -1.73198931
 C           -0.50153850       -2.59406029       -1.96299045
 C           -2.37447694       -1.06577365       -2.45008873
 C            1.70158559       -1.74833045       -2.60848788
 C            2.03926177       -0.36792908       -2.92031445
 C            0.29350108       -1.94051932       -2.89552898
 C            0.47717964        1.53756041       -2.84704939
 C           -1.53091188       -0.37321449       -3.41427029
 C            0.82833623        0.29381297       -3.37220591
 C           -0.19361375       -0.72963107       -3.53706541
 C           -1.39567897        2.90903356       -2.03580829
 C           -2.67760722        2.37364139       -1.60996195
 C           -2.96623821        1.20784680       -2.42572386
 C           -0.83049355        1.99224567       -3.01103019
 C           -1.86861397        1.03865947       -3.36399753
