56
Modified xyz file
 C            1.61140249       -0.13206889        4.24286041
 C            0.76118210       -1.30376148        4.36687805
 C            1.16541712       -2.25249339        3.34751884
 C            2.48301530       -0.33053509        3.09766322
 C            2.26133440       -1.67029844        2.58823260
 C            2.29640036        0.78457278        2.18594591
 C            0.75786615        1.00252179        3.94574044
 C            1.26396980        1.64209373        2.73938603
 C           -0.60124870       -0.90051921        4.06344696
 C           -0.62234461        0.54697224        3.95788055
 C           -0.02642419       -2.65918951        2.62164109
 C           -1.06408908       -1.68752550        2.92779843
 C            0.13508286       -3.05682590        1.30673587
 C            2.26270696       -1.85647834        1.21038370
 C            1.43464307       -2.85046273        0.69475103
 C            2.27987666        0.52078569        0.82041744
 C            2.58386938       -0.77223568        0.38701667
 C            1.58090965        1.38360636       -0.03361076
 C            0.35169562        2.22021834        1.86504433
 C            0.68277588        2.31084377        0.51055398
 C           -1.48996776        1.11688110        3.04127899
 C           -0.99698547        2.20191473        2.21638604
 C           -1.73973399       -1.03686168        1.89088371
 C           -2.21801752        0.24616327        2.12994143
 C           -0.83819171       -2.62518660        0.32114419
 C           -1.60333116       -1.49001812        0.56973434
 C            1.23484503       -2.91364943       -0.73701654
 C           -0.20035692       -2.77785181       -0.97150649
 C            2.70909100       -0.99509445       -0.97908989
 C            2.10282958       -2.19394159       -1.54236980
 C            1.62896403        1.15893533       -1.41668976
 C            2.40522287        0.09748002       -1.88543712
 C            0.75149032        1.83447191       -2.28140103
 C           -0.18926186        2.99785742       -0.33002116
 C           -0.09876907        2.81095516       -1.76686166
 C           -1.98461651        2.37134575        1.17349415
 C           -2.62607657        1.07088894        1.01234719
 C           -1.60250506        3.04094398        0.02498817
 C           -2.00344007       -0.68322618       -0.51018266
 C           -2.68669388        0.52021356       -0.26248295
 C           -0.63119935       -2.00005064       -2.03924985
 C           -1.62386470       -1.03255589       -1.82324520
 C            1.65599196       -1.86266731       -2.87929238
 C            2.10467449       -0.51164751       -3.16378804
 C            0.23037054       -1.87913136       -3.13262180
 C            0.50621276        1.34777375       -3.57242753
 C            1.09662884        0.09830342       -4.00009319
 C           -0.00116035       -0.85434938       -4.12670936
 C           -2.09362572       -0.29019420       -2.90913397
 C           -0.85943242        1.30060965       -4.06329804
 C           -1.23373617       -0.10168285       -4.06151465
 C           -1.44956671        2.93068201       -2.29552208
 C           -2.34991612        2.74772851       -1.17947146
 C           -2.91296387        1.41576556       -1.30430766
 C           -1.88074915        2.00516915       -3.32214638
 C           -2.71020052        0.99480521       -2.67060236
