56
Modified xyz file
 C            1.38361731       -0.05459248        3.54480586
 C            2.55594947       -0.37020054        2.76239649
 C            2.44718923       -1.75378010        2.33016606
 C            0.54767245       -1.24533833        3.59389962
 C            1.11813303       -2.22162649        2.68201135
 C           -0.82824135       -0.82478673        3.40742590
 C            0.54221906        1.04857316        3.12218011
 C           -0.83096710        0.62893420        3.33469756
 C            0.85950968        1.77953331        1.97307124
 C            2.83725925        0.42964523        1.59076171
 C            2.09050497        1.57279172        1.31949439
 C            2.86572458       -1.82454661        0.93985286
 C            3.14267368       -0.47005194        0.49004590
 C            2.19266708       -2.68559196        0.09134833
 C            0.32245569       -2.79161010        1.68975669
 C            0.93759857       -3.27678603        0.53582730
 C           -1.64376802       -1.55516932        2.55225982
 C           -1.06131320       -2.58954279        1.70630671
 C           -2.66929432       -0.87162601        1.77905281
 C           -1.83523514        1.27795318        2.63294600
 C           -2.84510256        0.49802770        1.93038694
 C           -0.14609695        2.55935192        1.37907102
 C           -1.47369777        2.39011511        1.77254413
 C            0.11429281        3.28547616        0.21931031
 C            2.31969291        2.16443711        0.08345930
 C            1.41393812        3.17934982       -0.40107064
 C            2.80538745       -0.06914554       -0.80505310
 C            2.67618325        1.30211553       -1.03400415
 C            2.02587722       -2.31039315       -1.29931369
 C            2.22140844       -0.98566657       -1.69255736
 C            0.13918113       -3.54485811       -0.64680569
 C            0.86351610       -3.02564022       -1.79500691
 C           -1.82672365       -2.62272858        0.46545410
 C           -2.67810879       -1.44790225        0.44130606
 C           -1.21795580       -3.03901035       -0.70665342
 C           -2.68432984       -0.61161044       -0.67630897
 C           -3.27723132        1.27512855        0.78171033
 C           -2.52381904        2.51827595        0.77854500
 C           -3.16115639        0.69244446       -0.54338536
 C           -0.88285632        3.32089031       -0.84255221
 C           -2.15152375        2.81082809       -0.59470169
 C           -2.66707579        1.73305649       -1.42763092
 C            1.21876517        2.96513929       -1.82620838
 C            1.99003931        1.79374844       -2.21521589
 C           -0.21061198        3.00348156       -2.09236794
 C            1.59189775       -0.53618626       -2.85756038
 C            1.44577413        0.88698434       -3.11054545
 C           -0.07790987       -2.31164538       -2.63324911
 C           -1.33430984       -2.21410689       -1.89840779
 C           -2.01019263       -0.99131555       -1.84345222
 C            0.37775237       -1.19836518       -3.32255775
 C           -1.98416668        1.36313521       -2.57663496
 C           -0.76694248        2.06711325       -2.95678483
 C            0.10427534        1.11329871       -3.62545173
 C           -1.78041467       -0.04974833       -2.84790110
 C           -0.58211032       -0.16625654       -3.65871229
