56
Modified xyz file
 C            1.16583055        0.15000937        4.17208081
 C            2.42262316        0.09561769        3.44922926
 C            2.51719247       -1.23130585        2.87357948
 C            0.37458011       -1.00445231        3.76312402
 C            1.18286561       -1.80256410        2.86868730
 C           -0.90110282       -0.52158300        3.29104133
 C            0.33375231        1.32863412        4.03834441
 C           -0.98986295        0.88560448        3.63268783
 C            0.74567717        2.37873736        3.12350703
 C            2.68454507        1.05177605        2.38077863
 C            1.83934342        2.13704089        2.19269407
 C            3.19462669       -1.10804432        1.60138158
 C            3.13942870        0.30110575        1.22402442
 C            2.88400936       -2.04231571        0.62925713
 C            0.65616654       -2.22696559        1.64883834
 C            1.56150009       -2.66109032        0.68392321
 C           -1.36475445       -0.91460593        2.04177856
 C           -0.61833052       -1.79787451        1.24371110
 C           -2.31366303       -0.10280126        1.43136303
 C           -1.47647822        1.80337021        2.61692302
 C           -0.41802985        2.75876445        2.34494426
 C           -2.15766629        1.28239246        1.52283694
 C            1.36760466        2.44827077        0.85156875
 C            0.00054634        2.92707345        0.96387687
 C            2.70086216        0.64551960       -0.05988336
 C            1.70627863        1.62039912       -0.22270828
 C            3.10846684       -1.65873888       -0.74584373
 C            2.94778482       -0.25777889       -1.08893720
 C            1.11310549       -2.87093244       -0.67857784
 C            2.17585972       -2.41255085       -1.55417081
 C           -1.08397817       -2.09980059       -0.04816541
 C           -0.19997332       -2.57234408       -1.02863756
 C           -3.00011953       -0.61610763        0.34166647
 C           -2.36512457       -1.67972362       -0.41741568
 C           -3.57986241        0.32135779       -0.60487163
 C           -2.11429073        2.00886026        0.33653640
 C           -0.89152368        2.57214824       -0.03630206
 C           -3.01579396        1.65764461       -0.66165779
 C            0.87127801        1.60296749       -1.35380279
 C           -0.37250933        2.25300903       -1.28562338
 C            2.15582709       -0.20289821       -2.30189857
 C            1.80868654       -1.57314947       -2.67176180
 C            1.19944198        0.79739739       -2.45650741
 C           -0.47577833       -2.35328130       -2.38338046
 C            0.56448922       -1.78812531       -3.23753408
 C           -2.69352325       -1.47894946       -1.82093440
 C           -3.48990576       -0.26444971       -1.92908548
 C           -1.74460373       -1.77593480       -2.78989422
 C           -2.65933794        1.92590338       -2.04436028
 C           -1.26563990        2.19092996       -2.34794389
 C           -3.07916755        0.78657398       -2.84338134
 C            0.30119055        0.65922408       -3.51462016
 C           -0.03252376       -0.68296506       -3.95501327
 C           -1.47179357       -0.82814284       -3.86306384
 C           -0.92358408        1.42745544       -3.52415139
 C           -2.02464163        0.51168861       -3.79825615
