56
Modified xyz file
 C            1.48985238        0.07789122        4.04052197
 C            0.74395538       -1.13659542        3.76561373
 C            1.48735414       -1.90493657        2.78203213
 C            2.59639251        0.13374478        3.10219921
 C            2.71181874       -1.16853118        2.48011329
 C            2.39691516        1.28566723        2.23998942
 C            0.62041167        1.20356908        3.75470826
 C            1.30673164        2.06324253        2.80753064
 C           -0.62447972       -0.76388321        3.46483244
 C           -0.68883499        0.68809672        3.38615256
 C           -1.31767471       -1.51230210        2.53233694
 C            0.79413298       -2.54411255        1.74911213
 C           -0.60076501       -2.48715557        1.71602728
 C            1.48662921       -2.91209753        0.59622565
 C            3.20857592       -1.22155936        1.18842327
 C            2.79375426       -2.32928795        0.35624288
 C            2.48031652        1.10834745        0.85456204
 C            3.13782084       -0.01566341        0.36677141
 C            1.65549549        1.85633520        0.00520471
 C            0.52695221        2.81587508        1.95047402
 C            0.92467542        2.90549585        0.56097801
 C           -1.36521627        1.30645067        2.33062771
 C           -0.90282962        2.55729890        1.92522127
 C           -2.26056943       -0.83974508        1.66330108
 C           -2.15064897        0.53578406        1.45639734
 C           -1.29712279       -2.57539635        0.43946902
 C           -2.46670068       -1.71611762        0.52757241
 C            0.78955477       -2.96385204       -0.68347581
 C           -0.56291608       -2.62592673       -0.74427860
 C            2.82966611       -1.87545078       -1.01805569
 C            2.92663636       -0.42474142       -1.00595142
 C            1.70411534       -2.47581130       -1.70683515
 C            1.35654677        1.39243394       -1.29367385
 C            2.05850933        0.29362918       -1.82178250
 C            0.35200351        2.02297065       -2.06038439
 C           -0.23076140        3.42041003       -0.13537371
 C           -1.39464965        3.13969707        0.69870388
 C           -0.52204079        2.91852433       -1.45458776
 C           -2.67455312        1.08982396        0.27659050
 C           -2.32533647        2.38298545       -0.10770989
 C           -1.94626648        2.63306287       -1.48698204
 C           -2.98932130       -1.17857573       -0.63208694
 C           -3.25127302        0.24999388       -0.67913766
 C           -1.09499283       -2.07518018       -1.91716017
 C           -2.38711383       -1.54169248       -1.90092708
 C            1.17760481       -1.78027214       -2.77966469
 C            1.54961853       -0.38170100       -2.92880240
 C           -0.25117259       -1.83195122       -3.00354523
 C           -0.07454310        1.45957690       -3.26168806
 C            0.53084696        0.24069646       -3.73934068
 C           -0.53348542       -0.73756495       -3.91719229
 C           -2.42819050        1.79136862       -2.47848826
 C           -3.22438717        0.64146975       -2.08206059
 C           -2.76890710       -0.50759790       -2.85029161
 C           -1.50473349        1.35246616       -3.51237092
 C           -1.79740047       -0.03920626       -3.81608783
