56
Modified xyz file
 C            1.16051078       -0.13730241        3.93199576
 C            2.35661957       -0.36872715        3.14507426
 C            2.20541152       -1.65882977        2.48891939
 C            0.30411209       -1.30270326        3.77445897
 C            0.83879147       -2.09136701        2.67911660
 C           -1.06033241       -0.83377090        3.68593744
 C            0.35144405        1.03984238        3.66612682
 C           -1.03612975        0.62169219        3.67724510
 C            0.76794128        1.96763861        2.71788704
 C            2.73851576        0.59824119        2.12992675
 C            2.01260613        1.76952695        1.98281554
 C            2.69167202       -1.52168427        1.13444642
 C            3.12245096       -0.14456496        0.94481100
 C            1.99940236       -2.13471815        0.09674814
 C            0.05322749       -2.33273675        1.55068039
 C            0.68201844       -2.56565790        0.31476615
 C           -1.86262282       -1.25776498        2.55755456
 C           -1.33668046       -2.13240108        1.61394150
 C           -1.92113347        1.07061552        2.61448261
 C           -2.60068801       -0.10137025        2.08451638
 C           -0.20204582        2.55830083        1.80389396
 C           -1.50463541        2.06179455        1.72982864
 C            1.83597387        2.32479522        0.65411350
 C            0.50577061        2.91099689        0.58185266
 C            2.97357056        0.41662687       -0.32410584
 C            2.34556146        1.66869929       -0.46437716
 C            2.40199605       -1.79493342       -1.19267692
 C            2.98588560       -0.47972566       -1.39373461
 C            1.54781134       -2.08314066       -2.33250179
 C           -0.07172720       -3.02288899       -0.76359691
 C            0.28937819       -2.61737625       -2.11039525
 C           -2.11070742       -2.34754746        0.48181087
 C           -1.51530173       -2.97515938       -0.67668694
 C           -3.04171937       -0.08398122        0.76232929
 C           -2.97655520       -1.27013767        0.02101732
 C           -2.22067845        2.22195452        0.54821646
 C           -3.09348782        1.14428931        0.10439130
 C           -0.17335327        2.90747299       -0.63355082
 C           -1.56003361        2.76716324       -0.62797765
 C            1.88350540        2.09467889       -1.71019793
 C            0.54829207        2.66709204       -1.80619069
 C            2.64603074       -0.03896185       -2.72921759
 C            1.68580845       -0.98635933       -3.27577683
 C            2.10583049        1.28877852       -2.89393452
 C           -0.10617015        2.07540356       -2.96839095
 C            0.50037231       -0.24244472       -3.66440044
 C            0.83650913        1.16838747       -3.59252785
 C           -0.87227593       -1.95990121       -2.69240771
 C           -2.01461105       -2.29585391       -1.86271485
 C           -2.90828206       -1.23749875       -1.43544755
 C           -0.74763591       -0.67080307       -3.21372501
 C           -3.14756620        1.18831361       -1.34541915
 C           -2.23311728        2.22517944       -1.79519802
 C           -1.43142048        1.68246562       -2.87178036
 C           -2.86411093       -0.01862103       -2.09443225
 C           -1.76399795        0.26898375       -3.00753921
