56
Modified xyz file
 C            1.60281667        0.17621292        4.18640487
 C            0.78470674       -1.02173647        4.20941253
 C            1.47947029       -2.03109932        3.43569063
 C            2.61088322        0.00382285        3.15081369
 C            2.55491350       -1.36896320        2.70926335
 C            2.41426669        1.05557660        2.17063480
 C            0.75459313        1.27974962        3.77945275
 C            1.45635548        1.99269777        2.73474114
 C           -0.56962147       -0.65418382        3.82078987
 C           -0.56343674        0.75569903        3.46411261
 C           -1.31171241       -1.53426887        3.04711234
 C            0.71426874       -2.80812097        2.47887469
 C           -0.67316226       -2.73070878        2.50956825
 C            2.35662406       -1.63424664        1.29917515
 C            1.39640484       -2.71421875        1.19477258
 C            2.32792257        0.74937941        0.80604460
 C            2.27622996       -0.58681871        0.38035850
 C            1.87380370        1.75203223       -0.05851992
 C            0.68910335        2.71669528        1.84419165
 C            1.16466499        2.82302247        0.48542821
 C           -1.17752403        1.18790595        2.28359511
 C           -0.72465505        2.37821592        1.72379838
 C           -2.15092564       -0.99302335        1.99369608
 C           -1.86696531        0.27041212        1.47925534
 C           -1.40279682       -3.09808085        1.31407947
 C           -2.42167043       -2.08287439        1.08575153
 C            0.66415240       -2.81937455        0.01741612
 C           -0.66812247       -3.23536053        0.07158591
 C            1.76466668       -0.87305289       -0.88512775
 C            1.08220739       -2.08351718       -1.09099126
 C            1.71329339        1.47960158       -1.42057093
 C            1.70021377        0.14365289       -1.84175224
 C            1.12917324        2.47290567       -2.21750272
 C            0.03776107        3.34612786       -0.25029871
 C           -1.12757868        2.73578750        0.37612150
 C            0.11356228        3.32777655       -1.62704224
 C           -2.09617646        0.54674750        0.11632894
 C           -1.90162930        1.84803321       -0.36864277
 C           -2.44075325       -1.81062119       -0.33494351
 C           -1.57805417       -2.79159869       -0.96877225
 C           -2.37993617       -0.49535213       -0.78620816
 C            0.39449309       -2.28538263       -2.28185019
 C           -1.04430020       -2.46672489       -2.20375340
 C            1.38690961       -0.18591824       -3.16145386
 C            0.65502259       -1.40849969       -3.40680406
 C            0.68461689        2.16780788       -3.56409321
 C            0.80797301        0.81048093       -4.04222884
 C           -1.10877022        3.04284078       -2.34452046
 C           -2.03878366        2.10571313       -1.73451105
 C           -0.72248399        2.53359523       -3.64606871
 C           -2.17618365       -0.29732165       -2.15253608
 C           -1.60702951       -1.33051161       -2.90526663
 C           -0.64015466       -1.01986093       -3.94151942
 C           -0.52733058        0.34710869       -4.39864201
 C           -2.20153396        0.99734238       -2.65708691
 C           -1.46978223        1.31449699       -3.87776330
