56
Modified xyz file
 C            1.53839380       -0.21008951        4.26163818
 C            0.65737564       -1.36032366        4.35844194
 C            1.17650484       -2.39162901        3.47980014
 C            2.56517270       -0.51261061        3.27794679
 C            2.39495698       -1.88970472        2.85982712
 C            2.53741701        0.53199838        2.26758671
 C            0.75954757        0.90214729        3.74756345
 C            1.47828297        1.46109741        2.62326236
 C           -0.64347715       -0.96823533        3.84462528
 C           -0.59454153        0.44657695        3.51373504
 C            0.08524255       -2.83816111        2.62562829
 C           -1.01614063       -1.90246297        2.79314052
 C            0.38941317       -3.29310414        1.35139647
 C            2.63979170       -2.21118103        1.53234327
 C            1.75871315       -3.16473348        0.87968868
 C            2.69437553        0.19315268        0.92153486
 C            2.90991693       -1.14396896        0.57276509
 C            2.21237632        1.07916466       -0.05095804
 C            0.74724851        2.01248204        1.58376636
 C            1.38759020        2.13229313        0.36306871
 C           -1.22541284        0.85911737        2.34535088
 C           -0.64585346        1.87587532        1.57836308
 C           -1.66252781       -1.39143016        1.66937065
 C           -2.05206731       -0.05219719        1.69909185
 C           -0.48892786       -2.94717786        0.24411343
 C           -1.51937105       -2.02753315        0.42863854
 C            1.71471471       -2.83274011       -0.53075096
 C            2.47929685       -1.61661576       -0.73420805
 C            0.32628096       -2.83574843       -0.95047473
 C            2.16878899        0.65873651       -1.38515938
 C            1.98945632       -0.69602315       -1.64893838
 C            1.81570114        1.57368331       -2.37451568
 C            0.77813326        2.93700727       -0.58337228
 C            1.17473996        2.80711318       -1.96865847
 C           -1.35913388        2.35016003        0.46745043
 C           -0.66910885        3.04854346       -0.53105946
 C           -2.85235643        0.42239391        0.67635119
 C           -2.58940575        1.75866485        0.17427599
 C           -2.08659129       -1.42766482       -0.70180966
 C           -3.02532979       -0.42107008       -0.48467125
 C           -0.05944023       -1.91335395       -1.91127518
 C            0.91817971       -1.07946660       -2.45594523
 C           -1.38272318       -1.47792228       -1.91686310
 C            1.11643103        1.08637329       -3.55391006
 C            0.57200393       -0.25921328       -3.52292687
 C           -0.00684704        2.99971470       -2.79181269
 C           -1.15936908        3.06966339       -1.90467621
 C            0.02827548        2.00569478       -3.84842513
 C           -3.12725856        1.81063664       -1.17557874
 C           -3.44170851        0.44358364       -1.57079513
 C           -2.33703964        2.40646194       -2.23343282
 C           -1.82395387       -0.75801314       -3.02768430
 C           -0.82571408       -0.18239499       -3.91434332
 C           -1.16085350        1.21920487       -4.11674027
 C           -2.88432454        0.22022262       -2.88422899
 C           -2.37484404        1.49300586       -3.36755095
