56
Modified xyz file
 C            1.29202662        0.07420527        3.94504178
 C            2.48575980       -0.11460328        3.14814032
 C            2.45922552       -1.46762264        2.61195745
 C            0.45945726       -1.10830423        3.78793145
 C            1.17880185       -2.05983574        2.95544285
 C           -0.86487968       -0.66970831        3.37374491
 C            0.46441554        1.23427507        3.68669931
 C           -0.90161852        0.77237954        3.49129211
 C            0.78489800        2.10287858        2.56582652
 C            2.74774714        0.78257015        2.03436162
 C            1.82411530        1.77429733        1.69075604
 C            2.85137659       -1.38888974        1.21230607
 C            3.32591459       -0.03516411        0.98467902
 C            2.06342623       -2.00667382        0.24050421
 C            0.47780199       -2.75067406        1.97658073
 C            1.04500015       -2.87283524        0.64224742
 C           -1.45732964       -1.26721621        2.26657483
 C           -0.93619423       -2.47235319        1.79836164
 C           -2.29541055       -0.51593655        1.43625292
 C           -1.46872755        1.54017975        2.39890802
 C           -0.48551080        2.54145866        2.02119595
 C           -2.17207111        0.88157410        1.39314885
 C           -0.51611512        3.03963675        0.73026126
 C            1.79167169        2.24838562        0.37419887
 C            0.69864128        2.99869752       -0.06694481
 C            3.32311401        0.45553556       -0.30766556
 C            2.70102694        1.74329852       -0.55558149
 C            2.10087377       -1.53037045       -1.07548839
 C            2.89018752       -0.42131718       -1.37957821
 C            1.18017932       -1.99457884       -2.01753829
 C           -0.05725854       -3.16673084       -0.25979767
 C           -1.29796639       -2.94464882        0.47254378
 C            0.03840297       -2.78431215       -1.58959796
 C           -2.97992689       -1.17653324        0.41876021
 C           -2.38356462       -2.36414970       -0.16840409
 C           -3.57325918       -0.40661433       -0.65704631
 C           -2.41882358        1.56896164        0.20046404
 C           -1.61260674        2.65442114       -0.14189177
 C           -3.21970334        0.99155361       -0.77925804
 C            0.29715110        2.95944303       -1.46865827
 C           -1.14840811        2.79807380       -1.51276589
 C            2.38411132        1.78822191       -1.97380836
 C            2.52262883        0.43570428       -2.49393440
 C            1.09388539        2.29913720       -2.39494629
 C            0.73786360       -1.12247655       -3.09823449
 C            1.33006230        0.12402794       -3.25880860
 C            0.49918815        1.31888960       -3.29165154
 C           -1.13890766       -2.29086561       -2.28915977
 C           -2.34676698       -2.16631693       -1.60761008
 C           -3.24039216       -1.06311390       -1.91315274
 C           -0.70498845       -1.25733501       -3.22224531
 C           -2.91423632        1.24456500       -2.17803714
 C           -1.72880715        2.01876986       -2.50657951
 C           -0.88497017        1.19543581       -3.36119742
 C           -2.81245946       -0.04082772       -2.84975321
 C           -1.48805190       -0.12656888       -3.43884656
