56
Modified xyz file
 C            1.49443288        0.02543042        3.95139412
 C            0.67035124       -1.15040411        3.74834454
 C            1.29841917       -1.98126077        2.73531683
 C            2.62138067       -0.06266365        3.04189668
 C            2.47049483       -1.26702580        2.24450709
 C            2.72436483        1.20468010        2.35314690
 C            0.70713072        1.18218985        3.55908912
 C            1.48010028        1.93163260        2.58932709
 C           -0.68542193       -0.69926104        3.51085994
 C           -0.60722577        0.71339786        3.16899203
 C           -1.50284463       -1.51261453        2.74611275
 C            0.47922627       -2.65102448        1.82863411
 C           -0.90133504       -2.63874813        2.04536454
 C            0.98270171       -2.93037426        0.55754657
 C            2.71142497       -1.20985844        0.87151358
 C            2.10117038       -2.15185436        0.04658752
 C            3.25154498        1.20299161        1.07084283
 C            3.22585317       -0.03857672        0.30229464
 C            2.85853770        2.27496525        0.17711116
 C            0.82289633        2.51014907        1.50424279
 C            1.60188311        2.95008320        0.43659426
 C           -1.13750825        1.15396273        1.95705871
 C           -0.53500420        2.22796985        1.29182460
 C           -2.40426404       -0.88875471        1.79866792
 C           -2.08760602        0.36842834        1.29365155
 C           -1.81271784       -2.99224325        0.97047621
 C           -2.80231245       -1.92687381        0.87610033
 C            0.08669325       -3.20891370       -0.55921552
 C           -1.28750173       -3.22448650       -0.36070043
 C            1.80293357       -1.80662082       -1.33417994
 C            0.63992517       -2.57249840       -1.74678607
 C            2.88282451        0.29833432       -1.07405491
 C            2.78982891        1.73573216       -1.16975111
 C            1.95815428       -0.48776145       -1.75040361
 C            0.98082458        3.19390071       -0.84892652
 C            1.62415533        2.30448698       -1.80863552
 C           -1.18638111        2.78044728        0.19047122
 C           -0.39671983        3.33244881       -0.90188899
 C           -2.52875532        0.73969473        0.01846955
 C           -2.29847691        2.05070433       -0.39604726
 C           -2.94620457       -1.58100017       -0.52028902
 C           -2.15463975       -2.52609793       -1.29422785
 C           -2.94915641       -0.24132287       -0.90139369
 C           -0.20680002       -2.04293524       -2.71091404
 C           -1.65023350       -2.11612446       -2.52285648
 C            0.99242620        0.10058135       -2.58324367
 C            0.82202196        1.49918407       -2.61268742
 C            0.09797081       -0.73253188       -3.26088354
 C           -1.06171934        2.97900730       -2.14232038
 C           -2.34406506        2.39033182       -1.80394205
 C           -0.39019214        2.04975035       -3.03124081
 C           -2.91629608        0.01618568       -2.27198255
 C           -2.22335475       -0.92694664       -3.13109360
 C           -1.14581728       -0.19827042       -3.77742816
 C           -2.59905720        1.33935333       -2.76322888
 C           -1.41806066        1.21102445       -3.60811715
