56
Modified xyz file
 C            1.20098298        0.09504589        3.92272181
 C            2.40527895       -0.01469689        3.12564145
 C            2.48764894       -1.38958338        2.67794192
 C            0.37886192       -1.07416544        3.63462028
 C            1.15936212       -1.96386049        2.79687502
 C           -0.89605504       -0.59937538        3.13574035
 C            0.36806739        1.26248575        3.73659777
 C           -0.98778198        0.79475044        3.49962776
 C            0.67793633        2.17488852        2.65070028
 C            2.55231870        0.82997915        1.94927269
 C            1.58189590        1.78624600        1.65860748
 C            3.10277100       -1.38396376        1.36571766
 C            3.06581435       -0.00601921        0.87953962
 C            2.74098523       -2.39632319        0.49007866
 C            0.58120967       -2.50838720        1.65256594
 C            1.44112878       -3.02672035        0.68341975
 C           -1.29818416       -0.98664833        1.86164281
 C           -0.70856489       -2.11023349        1.27686330
 C           -2.12136948       -0.14451732        1.09382475
 C           -1.58453178        1.70477347        2.54780078
 C           -0.59655453        2.73400848        2.25367349
 C           -2.32771594        1.19227420        1.48921648
 C           -0.67994539        3.37346867        1.02793071
 C            1.32209277        2.12310378        0.32579155
 C            0.36395542        3.10459267        0.04947869
 C            2.67093164        0.24496512       -0.43427052
 C            1.84147688        1.33719747       -0.71454519
 C            2.88619609       -2.14428814       -0.92773993
 C            2.82021611       -0.76959184       -1.38312440
 C            0.92239689       -3.39575675       -0.62229876
 C            1.85013259       -2.88870926       -1.62190334
 C           -1.28555883       -2.65226394        0.13636002
 C           -0.44169652       -3.29897157       -0.85786770
 C           -2.64499910       -0.61648019       -0.12109863
 C           -2.30738639       -1.89445000       -0.56360343
 C           -3.14822142        0.28164662       -1.06171490
 C           -2.77464137        2.12455143        0.55796927
 C           -1.94737465        3.29505413        0.32480388
 C           -3.26899822        1.68047597       -0.72369314
 C           -0.24089503        3.18253412       -1.27197062
 C           -1.67133677        3.36150880       -1.09725580
 C           -2.58309403        2.44641815       -1.75717491
 C            1.39659686        1.53217782       -2.02286747
 C            0.22605263        2.34904117       -2.27722094
 C            2.01666200       -0.75698687       -2.59435275
 C            1.34755337       -2.04754990       -2.69719337
 C            1.33745155        0.40265002       -2.93229814
 C           -0.89863943       -2.87598428       -2.17084400
 C           -2.11733454       -2.10998862       -1.98963829
 C           -0.00452434       -2.10285854       -3.01833263
 C           -2.66912281        0.21551971       -2.43316790
 C           -2.05446598        1.49948869       -2.72259335
 C           -0.70691995        1.54871821       -3.06614723
 C           -0.02180849        0.32278837       -3.44620650
 C           -2.05320104       -0.95162017       -2.86211711
 C           -0.70505498       -0.89035830       -3.41378320
