56
Modified xyz file
 C            1.55441064        0.01508146        3.82095415
 C            0.70016613       -1.15316015        3.72259691
 C            1.07419442       -1.88775252        2.52440169
 C            2.46762302       -0.01586494        2.69570741
 C            2.25449678       -1.25150989        1.96609525
 C            2.31877269        1.22542309        1.96199625
 C            0.71059933        1.18680423        3.66736701
 C            1.11602601        1.87681517        2.45315198
 C           -0.67143159       -0.70560433        3.85664373
 C           -0.66636581        0.75615857        3.79319455
 C           -1.65443956       -1.41733620        3.18045506
 C            0.07325241       -2.32874809        1.66101796
 C           -1.25874652       -2.30481152        2.09256356
 C            0.36365056       -2.47899185        0.30035592
 C            2.39433660       -1.20719388        0.58565141
 C            1.59740728       -2.04142788       -0.19845123
 C            2.51773404        1.18345945        0.59161540
 C            2.89025405       -0.03201016        0.01906608
 C            1.81036534        2.08243116       -0.19565824
 C            0.14513194        2.28126694        1.53307012
 C            0.50190098        2.40598813        0.18217772
 C           -1.62764537        1.41466715        3.03671121
 C           -1.20873416        2.20245685        1.88150409
 C           -2.86809787       -0.73229955        2.77377403
 C           -2.84881109        0.71405289        2.68198374
 C           -2.34137895       -2.31957043        1.12031330
 C           -3.26445352       -1.25658511        1.47814641
 C           -0.66539386       -2.79664166       -0.58575118
 C           -2.03376192       -2.49276497       -0.21903032
 C           -0.53056277       -2.46852813       -1.99488866
 C            1.84619161       -2.09372458       -1.57038527
 C            0.73144772       -2.19311994       -2.49755925
 C            3.24186616       -0.04109991       -1.32572746
 C            2.80691839       -1.16189494       -2.13940694
 C            2.20128247        2.21773945       -1.52395176
 C            3.03511345        1.17408787       -2.09771194
 C            1.21199828        2.58562606       -2.51596057
 C           -0.50897959        2.42706856       -0.78591887
 C           -0.18305803        2.58873342       -2.12668945
 C           -2.19792697        2.01185338        0.83462035
 C           -3.19637943        1.08048849        1.31940436
 C           -3.42050623       -0.13657328        0.56407109
 C           -1.75170900        1.88894783       -0.47105374
 C           -2.50028900       -1.50002888       -1.17333144
 C           -1.65539624       -1.61253371       -2.35174466
 C           -2.87232021       -0.23779032       -0.71125252
 C           -2.29150582        0.89259008       -1.29304031
 C           -0.91508112        1.80407202       -3.10243002
 C           -1.44234508       -0.48392291       -3.13283121
 C           -1.85617231        0.81026861       -2.61368463
 C            0.89712116       -1.15704633       -3.50551034
 C            2.24813866       -0.63300463       -3.37396192
 C            2.47230198        0.80203825       -3.38513850
 C            1.35957081        1.69198891       -3.65581339
 C           -0.16512164       -0.30522804       -3.80446911
 C            0.05434077        1.12666071       -3.94725782
