56
Modified xyz file
 C            1.34942367        0.04267951        3.96100330
 C            2.46348865       -0.12749205        3.05284378
 C            2.45691109       -1.50998950        2.60256196
 C            0.51292991       -1.14267210        3.85900815
 C            1.22695957       -2.12833139        3.06378727
 C           -0.80464108       -0.71305590        3.41572644
 C            0.49143846        1.19490668        3.78640685
 C           -0.87317963        0.71311637        3.62159729
 C            0.74231444        2.10274783        2.68075940
 C            2.55602927        0.72214565        1.87389084
 C            1.62646725        1.73784985        1.66149396
 C            2.75066036       -1.51051325        1.17968712
 C            2.93088873       -0.12629851        0.76172447
 C            2.06851700       -2.38444610        0.33430933
 C            0.49917842       -2.89738965        2.16697698
 C            1.07007793       -3.20578630        0.86505375
 C           -1.33228184       -1.27302822        2.25417459
 C           -0.89270627       -2.55179462        1.92725166
 C           -1.89918378       -0.44622897        1.26039953
 C           -1.48776842        1.52662163        2.59870403
 C           -0.56242090        2.61292954        2.31632889
 C           -2.13797066        0.91389934        1.52953404
 C           -0.69327044        3.26884236        1.10634856
 C            1.37013308        2.16660254        0.35498265
 C            0.39455339        3.14562328        0.14914129
 C            2.55150857        0.23317837       -0.52486678
 C            1.87194431        1.43847424       -0.73459056
 C            2.09588194       -2.11854364       -1.03495219
 C            2.45592174       -0.78074414       -1.47411517
 C            1.03295634       -2.59799354       -1.90896513
 C           -0.04428611       -3.62347118        0.03054924
 C           -1.26427104       -3.13641388        0.66239267
 C           -0.08244731       -3.21560782       -1.35983694
 C           -2.21360433       -0.97369157       -0.00867690
 C           -1.95138377       -2.31155349       -0.30166220
 C           -1.40128752       -2.65049754       -1.60046502
 C           -2.54158960       -0.12185649       -1.06796343
 C           -2.57133748        1.75324180        0.50636749
 C           -1.91853195        3.04515622        0.36483376
 C           -2.78135101        1.22375551       -0.82577556
 C           -0.17476668        3.34029367       -1.17364406
 C           -1.61957997        3.24704182       -1.03869628
 C           -2.32553758        2.22443806       -1.78671271
 C            1.51903567        1.79932932       -2.03686574
 C            0.42895714        2.73409747       -2.26427128
 C            1.79527054       -0.52946747       -2.74095050
 C            0.85475273       -1.62132436       -2.97328271
 C            1.44734624        0.77463318       -3.06757303
 C           -1.57615979       -1.74977020       -2.63873289
 C           -2.34836606       -0.54832298       -2.38287642
 C           -0.42868151       -1.35022986       -3.43934641
 C           -1.78619694        1.80519025       -2.99586236
 C           -0.41582581        2.18191937       -3.31406442
 C            0.25660640        1.01743984       -3.86284447
 C           -1.96594373        0.42172511       -3.39296762
 C           -0.72558164       -0.04136409       -3.99727848
