56
Modified xyz file
 C            1.52916166       -0.27266175        4.18383757
 C            0.67632323       -1.44584591        4.19242028
 C            1.14547101       -2.33931755        3.14965869
 C            2.51836541       -0.45245190        3.13532052
 C            2.20608253       -1.66491383        2.41636146
 C            2.56122587        0.77193317        2.38128303
 C            0.71257811        0.87075092        3.80917308
 C            1.42136982        1.58631821        2.77562258
 C           -0.66011428       -1.02280054        3.81683288
 C           -0.61478426        0.39474875        3.50369389
 C           -0.01782664       -2.78923956        2.40964524
 C           -1.13462988       -1.93019402        2.78415519
 C            0.15320571       -3.08664865        1.06719278
 C            2.13322590       -1.62533251        1.02190359
 C            1.33660136       -2.57447974        0.38796071
 C            2.83353481        0.71401301        1.02550028
 C            2.51590705       -0.46599515        0.32033579
 C            2.67090683        1.92332435        0.37286874
 C            0.69977945        2.20205296        1.75331465
 C            1.46289365        2.66936074        0.68644525
 C           -1.22217904        0.81023095        2.32492091
 C           -0.61659147        1.77630106        1.50217803
 C           -1.94019934       -1.40912020        1.77292739
 C           -2.17874691       -0.02997364        1.76812011
 C           -0.96869809       -2.89838314        0.16483277
 C           -2.04477924       -2.11814413        0.57206144
 C            0.99810726       -2.40962958       -1.00873054
 C           -0.42176089       -2.69878113       -1.16533698
 C            2.34522355       -0.41012289       -1.07971543
 C            1.55189297       -1.36822047       -1.73581792
 C            2.87130315        1.97197079       -1.04991516
 C            2.78125887        0.72590121       -1.77161099
 C            0.82347290        2.98364978       -0.57453742
 C            1.85205709        2.85406980       -1.59064546
 C           -1.23281835        2.08402763        0.27743423
 C           -0.45501551        2.49182663       -0.81755852
 C           -3.02090399        0.50313988        0.80782908
 C           -2.54753180        1.66494152        0.07572196
 C           -2.92001340       -1.65252066       -0.40293418
 C           -3.61347413       -0.40600788       -0.14836034
 C           -1.16358907       -1.98291430       -2.10383104
 C           -2.48116950       -1.63371288       -1.79376883
 C            0.95349130       -1.07763874       -2.96079273
 C           -0.47839215       -1.29416027       -3.11051563
 C            2.20219208        1.06624603       -3.05668015
 C            1.48595345        2.32432534       -2.88198199
 C            1.29211899        0.13167430       -3.67652349
 C           -0.86355682        2.21884525       -2.13816541
 C           -1.04690835       -0.08132895       -3.69332880
 C            0.08938977        2.05573336       -3.14544293
 C            0.04911062        0.83922955       -3.93115736
 C           -3.05970944        1.57092015       -1.27472565
 C           -3.75861871        0.30308476       -1.40417609
 C           -3.07733204       -0.46970512       -2.42614920
 C           -2.12086579        1.66655844       -2.36901492
 C           -2.21199533        0.43506652       -3.14813499
