56
Modified xyz file
 C            1.34283189       -0.09009386        3.63940902
 C            2.55629908       -0.34055586        2.89930622
 C            2.48491554       -1.69012157        2.35782152
 C            0.51161423       -1.28282737        3.56135256
 C            1.20846313       -2.26522854        2.74797281
 C           -0.82578243       -0.86116734        3.16846667
 C            0.51693504        1.03808300        3.25891301
 C           -0.86378471        0.58253345        3.29941540
 C            0.92016930        1.90066243        2.23567195
 C            2.89919796        0.54638050        1.80595513
 C            2.10165929        1.65677075        1.51504128
 C            2.82263681       -1.61420513        0.94327122
 C            3.37258545       -0.29185505        0.71562889
 C            1.95162019       -2.17098428        0.00711870
 C            0.48457526       -2.97725208        1.80204705
 C            1.01928812       -3.10281949        0.45642780
 C           -1.43506073       -1.47197975        2.07267707
 C           -0.93369427       -2.69971684        1.64756560
 C           -2.27111630       -0.71732971        1.23306558
 C           -1.81727742        1.29168739        2.59036155
 C           -2.61706456        0.58621888        1.60206655
 C           -0.02024529        2.80340509        1.73859539
 C           -1.42858102        2.56351361        2.00792001
 C            0.08417803        3.28519397        0.37216408
 C            2.32565622        2.31919495        0.30780552
 C            1.24476240        3.04564998       -0.33568294
 C            3.36270637        0.22253777       -0.56893726
 C            3.07073355        1.63485499       -0.73623894
 C            1.79384145       -1.55634826       -1.24617394
 C            2.63560949       -0.49794047       -1.60156983
 C            0.72681703       -1.90175318       -2.09208000
 C           -0.08942437       -3.47391314       -0.39330388
 C           -1.31588851       -3.22075787        0.35472545
 C           -0.22685881       -2.82891916       -1.67941742
 C           -2.65980849       -1.20277035       -0.02656962
 C           -2.17983504       -2.42582346       -0.48829127
 C           -1.63665195       -2.51103875       -1.83367908
 C           -3.23127208       -0.33246328       -0.95449848
 C           -2.99071655        1.54959736        0.57914414
 C           -2.15587132        2.72335759        0.76135465
 C           -1.19609923        3.06182391       -0.27679300
 C           -3.20362648        1.09680556       -0.71099670
 C           -1.25456754        2.37859376       -1.49177052
 C           -2.43058782        1.68589645       -1.79308257
 C            1.14980429        2.57762030       -1.70757152
 C            2.34343689        1.79469811       -1.98279849
 C            2.18927789        0.48044335       -2.58016056
 C           -0.07306758        2.13473249       -2.21237721
 C            0.41713118       -1.08548558       -3.17966961
 C            1.03275236        0.22242034       -3.29478778
 C           -0.04834362        1.19422042       -3.24605316
 C           -2.01094573       -1.55764955       -2.77002035
 C           -2.94930064       -0.52215839       -2.37058208
 C           -2.47073999        0.74808415       -2.89696601
 C           -0.97600486       -0.92945019       -3.57411791
 C           -1.25728106        0.49762796       -3.63707469
