56
Modified xyz file
 C            1.58906031       -0.12446861        4.27716975
 C            0.72013077       -1.28631702        4.29462701
 C            1.24156600       -2.24535975        3.33607604
 C            2.62663837       -0.35738098        3.28659552
 C            2.43300677       -1.68284575        2.73096925
 C            2.63975391        0.78100639        2.38417885
 C            0.80189295        1.00716117        3.82133651
 C            1.55146247        1.67053167        2.77219660
 C           -0.59042682       -0.86884362        3.82327035
 C           -0.53007857        0.53710422        3.49548585
 C            0.14571083       -2.63739732        2.46971979
 C           -0.99356723       -1.78299722        2.78015489
 C            0.40135667       -2.92660945        1.13012432
 C            2.62492222       -1.86213012        1.36890644
 C            1.66669739       -2.65338988        0.60520612
 C            2.88023835        0.57762057        1.02456858
 C            3.00816240       -0.72530919        0.53908975
 C            2.52549682        1.59754652        0.14492987
 C            0.84221742        2.30595100        1.75898102
 C            1.53126357        2.56279676        0.57987362
 C           -1.08075711        0.96325818        2.29232063
 C           -0.53989090        2.09870071        1.69056708
 C           -1.74973587       -1.30267026        1.71670806
 C           -1.84875127        0.08234187        1.51291524
 C           -0.69109680       -2.94696105        0.26899881
 C           -1.84984015       -2.14078766        0.61940616
 C           -0.49511096       -2.82315870       -1.16680777
 C            1.80396111       -2.25222442       -0.78771257
 C            2.60533973       -1.03670226       -0.82489725
 C            0.72773255       -2.36970056       -1.65996957
 C            2.26873417        1.30324913       -1.25756213
 C            2.24320996       -0.01644666       -1.70025612
 C            0.80025069        3.01944443       -0.58665578
 C            1.26162780        2.24446073       -1.73125791
 C           -1.26539477        2.69527888        0.66869992
 C           -0.55206176        3.28781107       -0.45175333
 C           -2.44423490        0.57719637        0.34076684
 C           -2.38168268        1.95481529        0.11434026
 C           -2.43252328       -1.64438319       -0.60509374
 C           -1.74066653       -2.29507918       -1.70680558
 C           -2.76769704       -0.30017084       -0.71032867
 C           -1.74160685       -1.68318953       -2.95174562
 C            0.75358840       -1.60743492       -2.82476144
 C            1.47371975       -0.34253214       -2.81472326
 C           -0.46688723       -1.41926534       -3.59147655
 C            0.35557346        1.84567414       -2.71285108
 C            0.60211866        0.66081001       -3.40652247
 C           -0.48163600       -0.04652266       -4.07018400
 C           -1.40245833        3.17145974       -1.62046829
 C           -2.62451235        2.49892407       -1.20621034
 C           -0.89787940        2.46295685       -2.78253323
 C           -3.09551003        0.18431565       -1.97865250
 C           -2.58349443       -0.51395093       -3.14780526
 C           -1.83493382        0.45034405       -3.94004082
 C           -3.00644677        1.59916154       -2.26875941
 C           -2.03655167        1.75430819       -3.34234846
