56
Modified xyz file
 C            1.19946977        0.07031405        4.15260016
 C            2.41285578       -0.02385242        3.36002111
 C            2.41821380       -1.32900291        2.72690705
 C            0.35311878       -1.06041078        3.80296950
 C            1.10032718       -1.91861640        2.90124743
 C           -0.92409917       -0.54117790        3.35653342
 C            0.39292400        1.27215418        4.06417042
 C           -0.93805679        0.88691561        3.61808202
 C            0.84049124        2.35828006        3.21287685
 C            2.67909908        0.96656094        2.32655915
 C            1.94666290        2.14602838        2.28745646
 C            2.92370701       -1.16731374        1.37532225
 C            2.95129185        0.25923998        1.08360536
 C            2.44874514       -2.03002214        0.40355224
 C            0.46051535       -2.44338149        1.78003292
 C            1.25365912       -2.80831101        0.69312223
 C           -1.43688091       -0.99620269        2.14945238
 C           -0.88730673       -2.13928535        1.56203714
 C           -2.17446274       -0.11261645        1.36083832
 C           -1.33051849        1.78575923        2.54251370
 C           -0.30572054        2.79683032        2.43470288
 C           -1.84561616        1.24001923        1.36875983
 C            1.54619490        2.68422831        1.00132940
 C            0.16512334        3.12658687        1.11198918
 C            2.41823287        0.73603454       -0.11977265
 C            1.93167593        2.04947845       -0.18107013
 C            2.29482847       -1.53525658       -0.94723496
 C            2.16263127       -0.16467218       -1.16762995
 C            0.63054724       -3.13386402       -0.58018570
 C            1.39028613       -2.45027828       -1.61786913
 C           -1.54046281       -2.69846602        0.46624046
 C           -0.75481242       -3.18146402       -0.65895770
 C           -2.89527504       -0.61657695        0.29168830
 C           -2.70013224       -2.00801055       -0.06949378
 C           -2.95753064        0.16147542       -0.93239002
 C           -1.66838848        1.90830417        0.14538684
 C           -0.65729569        2.88120570        0.02308363
 C           -2.27053061        1.37562242       -1.01043607
 C            1.29981743        2.48340271       -1.34352290
 C           -0.03896655        3.03513947       -1.20618873
 C            1.55565827        0.27335632       -2.34879547
 C            1.28024963        1.62709868       -2.50989693
 C            0.75033844       -2.01637986       -2.76769900
 C            1.00327238       -0.66330113       -3.23009597
 C           -1.42159708       -2.77209443       -1.88625298
 C           -2.65371721       -2.09565971       -1.51751868
 C           -2.92283870       -0.77198020       -2.05308389
 C           -0.67112553       -2.27804616       -2.94833923
 C           -0.11787602       -0.29782014       -4.08032026
 C           -2.30924511       -0.39093931       -3.23876445
 C           -1.21401410       -1.19685724       -3.75992551
 C           -1.94751447        1.88704130       -2.26891402
 C           -0.77823355        2.72352504       -2.40268149
 C            0.13703675        2.04918849       -3.30591192
 C           -1.95521965        1.00358843       -3.42367242
 C           -0.62953661        1.05448177       -4.02645666
