56
Modified xyz file
 C            1.51636225       -0.22042303        4.25366262
 C            0.68009170       -1.40468022        4.18619020
 C            1.25209940       -2.29722004        3.19336005
 C            2.58679965       -0.37347340        3.28268132
 C            2.45508283       -1.67893298        2.66649924
 C            2.58291323        0.80229791        2.43013588
 C            0.71090329        0.91382919        3.83656512
 C            1.46083276        1.64194329        2.83299320
 C           -0.62710897       -0.99807620        3.69992210
 C           -0.60449973        0.43127098        3.46834875
 C            0.19447412       -2.66133089        2.26471011
 C           -0.96969114       -1.85651898        2.58595727
 C            0.50534448       -2.83959863        0.91856947
 C            2.70885272       -1.79689452        1.30846986
 C            1.81559118       -2.60229691        0.49100910
 C            2.85873577        0.66673599        1.06847198
 C            3.04090721       -0.60959536        0.52708429
 C            2.48949412        1.71348277        0.22608072
 C            0.75607906        2.30459187        1.83437494
 C            1.46701388        2.63676054        0.68740994
 C           -1.16088588        0.91726699        2.29045718
 C           -0.62096376        2.07275047        1.72560878
 C           -1.68018135       -1.31757426        1.52386583
 C           -1.91780650        0.06215368        1.48066411
 C           -0.52907702       -2.75011904       -0.01758626
 C           -1.68006332       -2.02492947        0.32965910
 C           -0.20531653       -2.95087119       -1.35903170
 C            2.05601867       -2.20877651       -0.88778427
 C            2.64396177       -0.87858593       -0.85174442
 C            1.08176645       -2.48128925       -1.83139640
 C            2.23133734        1.45555322       -1.18135375
 C            2.09065568        0.14307941       -1.62115767
 C            0.75775001        3.14156625       -0.47321915
 C            1.31416187        2.47971489       -1.64872852
 C           -1.33515212        2.68876595        0.70418438
 C           -0.61203040        3.34391236       -0.37316018
 C           -2.58098442        0.60184680        0.37096597
 C           -2.44187907        1.96382476        0.10357156
 C           -2.59802572       -1.63550982       -0.63728021
 C           -3.05110457       -0.25586986       -0.62928640
 C           -1.17464823       -2.65888222       -2.39724443
 C           -2.42691476       -2.05040716       -2.01480765
 C            0.80482468       -1.49002423       -2.85316702
 C            1.17839785       -0.16383885       -2.63941954
 C           -0.52550045       -1.78072579       -3.36047043
 C            0.50480685        2.20992748       -2.74336824
 C            0.45774303        0.85519603       -3.26854761
 C           -1.43258567        3.26959846       -1.56812502
 C           -2.59606156        2.45384448       -1.25555699
 C           -0.84172731        2.75587351       -2.78893044
 C           -3.12632095        0.19337300       -2.01582255
 C           -2.63424008       -0.88622919       -2.85820122
 C           -1.42569470       -0.67797057       -3.64140847
 C           -0.90203138        0.60520543       -3.73344479
 C           -2.77808400        1.49954102       -2.33181106
 C           -1.72442227        1.72673777       -3.30941868
