56
Modified xyz file
 C            1.47719068        0.11230691        4.03765431
 C            0.69006320       -1.09382310        3.85466401
 C            1.53717497       -2.06954354        3.20887041
 C            2.69205500       -0.02833694        3.25132094
 C            2.74890922       -1.39433292        2.76787324
 C            2.72805011        1.05632008        2.28725215
 C            0.72000087        1.21767727        3.48293659
 C            1.55345240        1.88923395        2.50233229
 C           -0.55783914       -0.72857872        3.20139900
 C           -0.56860519        0.71475133        3.04144368
 C           -1.04682892       -1.51363613        2.15836122
 C            0.99447108       -2.77763491        2.07249811
 C           -0.36337018       -2.68751856        1.79288701
 C            2.89942333       -1.63561540        1.33988956
 C            1.90779786       -2.62215432        0.95548678
 C            3.13142434        0.79527480        0.98216247
 C            3.15972886       -0.57610950        0.48345905
 C            2.61545683        1.63286097       -0.08410921
 C            0.92283071        2.45255711        1.39721561
 C            1.64778958        2.58803066        0.20862617
 C           -1.10170999        1.25592313        1.87704638
 C           -0.47271120        2.37061882        1.33042781
 C           -1.93740055       -0.92239357        1.25257441
 C           -1.89547586        0.46011853        1.04527030
 C           -2.60870083       -1.72992539        0.34469861
 C           -0.76480706       -3.34548049        0.63857501
 C           -2.06986497       -3.04961535        0.09487356
 C            1.34808995       -2.60612643       -0.32252776
 C            0.17852479       -3.34699505       -0.47237229
 C            2.56628934       -0.58159853       -0.84423255
 C            2.42565605        0.79937304       -1.26151710
 C            1.55861936       -1.48992772       -1.15297883
 C            1.41904576        1.15238201       -2.15314498
 C            1.02555226        3.20377247       -0.87021739
 C            1.01259777        2.48937840       -2.13781963
 C           -1.13054899        3.06034184        0.32577285
 C           -0.31317808        3.71763547       -0.67099429
 C           -2.41655282        1.01789753       -0.13249856
 C           -2.20835761        2.38032373       -0.37404864
 C           -3.02761420       -1.17400883       -0.92989414
 C           -2.86625792        0.18668494       -1.17115613
 C           -1.98586979       -3.24512443       -1.33953577
 C           -0.57629708       -3.23577007       -1.69772313
 C           -2.59385612       -2.09366801       -1.97111722
 C            0.63491115       -1.15738679       -2.15646256
 C            0.55366716        0.15863540       -2.64110377
 C           -0.34324750       -2.08017273       -2.53616902
 C           -1.65006598       -1.59763505       -2.95381874
 C           -2.64106312        0.56067915       -2.49883695
 C           -0.54757073        0.51148300       -3.42784804
 C           -1.76148585       -0.26665640       -3.30368419
 C           -0.17046469        2.90612278       -2.86316638
 C           -1.00986781        3.65449868       -1.94161771
 C           -2.22265606        2.88310467       -1.73714969
 C           -0.99588179        1.89140262       -3.47149663
 C           -2.30062264        1.93037956       -2.81833021
