56
Modified xyz file
 C            1.31413092       -0.02649371        4.19970410
 C            0.52865219       -1.23874263        4.04125099
 C            1.41316271       -2.25714343        3.52121508
 C            2.53862905       -0.20043080        3.43754057
 C            2.63463139       -1.59493847        3.07765520
 C            2.53870671        0.78536704        2.37641062
 C            0.56926979        1.06521661        3.59477881
 C            1.39246271        1.66284493        2.57169015
 C           -0.66977179       -0.89276369        3.29308258
 C           -0.71582344        0.55612451        3.18987704
 C           -1.07193531       -1.65232026        2.18563405
 C            0.94107458       -3.08444679        2.43038720
 C           -0.31735062       -2.75805467        1.77765499
 C            2.83300031       -1.93724636        1.68311931
 C            1.96695889       -3.06873574        1.40413652
 C            2.87835030        0.42259473        1.07270736
 C            2.95408933       -0.93710487        0.71337593
 C            2.64274242        1.38442401        0.09183752
 C            0.77334617        2.18581811        1.43850701
 C            1.57286608        2.34447843        0.31761740
 C           -1.30524713        1.08480472        2.05566849
 C           -0.60848611        2.00742455        1.25900146
 C           -1.93889303       -1.05824592        1.25924013
 C           -2.25222864        0.29245650        1.43610629
 C           -2.02490861       -1.60554540       -0.02670839
 C           -0.12964035       -2.99281754        0.35468653
 C            1.30040449       -3.12034129        0.11592108
 C           -0.91654877       -2.27096057       -0.53793693
 C            2.77548646       -1.31745266       -0.61931022
 C            1.85681207       -2.40538353       -0.92953433
 C            2.62283425        1.02200620       -1.31262808
 C            2.63652109       -0.31736700       -1.66315966
 C            0.96208430        2.64382076       -0.95737667
 C            1.70711205        1.92915030       -1.98504296
 C           -1.21855322        2.42261798        0.06089567
 C           -0.42272007        2.73506852       -1.05761678
 C           -3.08721194        0.91571774        0.52830575
 C           -2.57516337        2.11550954       -0.10695753
 C           -2.94150403       -1.07155080       -0.92373576
 C           -3.67751229        0.10351061       -0.50949461
 C           -2.50666804       -0.84682448       -2.29168177
 C           -0.38838526       -1.86056526       -1.76924052
 C            0.98673160       -1.93674006       -1.98832796
 C            1.66237063       -0.82177342       -2.62208065
 C           -1.16031270       -1.04632441       -2.60559769
 C            1.03238457        1.49931645       -3.11972538
 C            0.90063195        0.06876705       -3.36339263
 C           -0.51763387       -0.20472634       -3.52277374
 C           -0.96930682        2.76927110       -2.34381355
 C           -0.25371114        2.10590366       -3.41904173
 C           -1.12445271        1.05519118       -3.91574070
 C           -3.20341457        2.21272695       -1.41109373
 C           -3.88197966        0.95176046       -1.66833663
 C           -3.21434234        0.32366841       -2.79282394
 C           -2.37550277        2.49787346       -2.55715609
 C           -2.46623844        1.36160556       -3.46767918
