56
Modified xyz file
 C            1.49968827        0.01197453        3.78462656
 C            0.69924471       -1.18439121        3.59559421
 C            1.33522372       -1.99041467        2.56609911
 C            2.61442099       -0.05780893        2.85898414
 C            2.63047435       -1.39030419        2.28527206
 C            2.52999569        1.07663922        1.95236824
 C            0.68157935        1.14744482        3.40346350
 C            1.32521672        1.81616606        2.28759436
 C           -0.67580384       -0.76844166        3.39564098
 C           -0.68015099        0.67781784        3.22365110
 C           -1.47210847       -1.53314720        2.55744987
 C            0.55528857       -2.48057481        1.51559351
 C           -0.83509881       -2.48507468        1.65611466
 C            1.13704892       -2.69155712        0.25885791
 C            3.16076970       -1.53009982        1.01542291
 C            2.48695135       -2.39933849        0.07063353
 C            2.85206536        0.87255924        0.61119515
 C            3.49299721       -0.32446551        0.27610494
 C            2.16996166        1.60327503       -0.37430152
 C            0.52460218        2.28341825        1.25703077
 C            1.07031920        2.39504912       -0.02105023
 C           -1.43540585        1.22976978        2.19191513
 C           -0.86340231        2.23702568        1.40900380
 C           -2.52869532       -0.87697920        1.80922918
 C           -2.52557930        0.51167312        1.69330851
 C           -1.69000491       -2.62306744        0.48801656
 C           -2.79687528       -1.68938637        0.63324846
 C            0.33362126       -2.92873511       -0.85831706
 C           -1.11181811       -2.82017902       -0.75636186
 C            0.71585863       -2.38658265       -2.15431333
 C            2.95725669       -2.01005042       -1.25082514
 C            3.62311397       -0.72196471       -1.11147940
 C            2.00301712       -1.90368706       -2.33987523
 C            2.42600874        1.36952444       -1.72814538
 C            3.11118201        0.15885781       -2.13463835
 C            2.18263460       -0.60234148       -2.95798963
 C            1.35721914        1.56281523       -2.68944096
 C            1.01991694        0.24155321       -3.18932026
 C            0.31305597        2.99754847       -1.02557708
 C            0.32556439        2.42042932       -2.35843647
 C           -1.66034550        2.92365795        0.50192889
 C           -1.06382340        3.37157239       -0.74180983
 C           -3.34487749        1.09968259        0.73283726
 C           -2.97529431        2.39498951        0.19160170
 C           -3.34300512       -1.08188722       -0.49104184
 C           -3.82322200        0.28521313       -0.37283496
 C           -1.58400823       -2.06055776       -1.90698295
 C           -0.41560562       -1.61726349       -2.64832665
 C           -0.25942319       -0.26375984       -2.95588096
 C           -2.66208562       -1.19764916       -1.77355497
 C           -1.03485153        1.99592023       -2.62770921
 C           -1.88456915        2.86354008       -1.83055623
 C           -3.10146614        2.32869023       -1.25726997
 C           -3.49279888        0.97852606       -1.60600339
 C           -1.31116824        0.62852162       -2.72028562
 C           -2.56280975        0.13585426       -2.34045853
