56
Modified xyz file
 C            1.49138588       -0.07525648        3.99498868
 C            0.70002322       -1.27680470        3.79123055
 C            1.35137371       -2.06502260        2.75858973
 C            2.54644789       -0.07164585        2.99840677
 C            2.60612948       -1.39761495        2.42302982
 C            2.32825527        1.05024932        2.10090074
 C            0.63358317        1.06250183        3.72955578
 C            1.17480779        1.78398891        2.58934640
 C           -0.68040595       -0.87417889        3.59912702
 C           -0.73321881        0.58189964        3.65208545
 C           -1.44688381       -1.55596663        2.66254871
 C            0.58372087       -2.64345840        1.74223923
 C           -0.80412499       -2.48691590        1.74197480
 C            1.21607774       -3.04995883        0.56831034
 C            3.08542696       -1.51177444        1.12915361
 C            2.56947145       -2.59150092        0.31604641
 C            2.47381697        0.84589369        0.72792258
 C            3.10675653       -0.31720179        0.28928263
 C            1.67368462        1.56860333       -0.16440523
 C            0.29020832        2.31831719        1.66415615
 C            0.69828494        2.44310239        0.33919146
 C           -1.61042870        1.26572719        2.81996835
 C           -1.07633344        2.30051737        1.94936825
 C           -2.48784989       -0.85210198        1.93026496
 C           -2.59585972        0.52963555        2.04420707
 C           -1.51880400       -2.42350185        0.47469170
 C           -2.61666421       -1.48401709        0.62625056
 C            0.49200268       -2.99375491       -0.69580374
 C           -0.80185174       -2.47406327       -0.71875280
 C            2.64611950       -2.17043325       -1.06785754
 C            2.94131436       -0.74662658       -1.08744063
 C            1.44197372       -2.62757418       -1.73651601
 C            1.73204656        1.28399895       -1.53845045
 C            2.23113321        0.05112165       -1.97657918
 C            1.08011984        2.11906082       -2.44758180
 C           -0.14399320        3.12309184       -0.53248994
 C            0.10887924        3.07161922       -1.95542341
 C           -2.03275740        2.49100183        0.87117032
 C           -2.91353495        1.33021311        0.86910299
 C           -1.57785190        3.01050500       -0.33372944
 C           -3.02175525       -0.73552730       -0.46875000
 C           -3.22252777        0.70033291       -0.33234993
 C           -1.25595591       -1.77360598       -1.84366864
 C           -2.39855479       -0.97619927       -1.75789986
 C            0.99217833       -1.88341659       -2.81371657
 C            1.61467220       -0.59367683       -3.04947865
 C           -0.43228169       -1.66153611       -2.96230946
 C            0.52321662        1.55254203       -3.66299350
 C            0.72229395        0.14369806       -3.91951162
 C           -0.57621793       -0.51400375       -3.84791772
 C           -1.15899316        2.79403214       -2.61759195
 C           -2.14048522        2.52471071       -1.58144165
 C           -2.84854826        1.32584875       -1.59275689
 C           -2.48116712        0.26184273       -2.51952756
 C           -0.91010416        1.79293970       -3.63689993
 C           -1.56825103        0.50034346       -3.54126693
