56
Modified xyz file
 C            1.43011626       -0.13401374        4.41939872
 C            0.63354807       -1.34306632        4.34624281
 C            1.21366090       -2.18052435        3.31624593
 C            2.40929781       -0.17383934        3.34306124
 C            2.21785372       -1.40114559        2.60841034
 C            2.30709884        1.07032360        2.62071047
 C            0.54783806        0.98228950        4.14456433
 C            1.26391006        1.87092365        3.25794811
 C           -0.69835292       -0.97690149        3.88958570
 C           -0.72217105        0.45401306        3.67696620
 C            0.11386203       -2.71587203        2.54083975
 C           -1.02487477       -1.83922692        2.77530340
 C            0.38350381       -3.06226329        1.22796117
 C            2.15677305       -1.37055976        1.21455564
 C            1.54784010       -2.45624429        0.59685089
 C            2.38553278        1.06276517        1.22747115
 C            2.24341373       -0.14762254        0.51786838
 C            2.09156241        2.26050344        0.59043184
 C            0.50501217        2.69008921        2.44004532
 C            1.12543647        3.14408769        1.21631797
 C           -1.24466127        0.95992966        2.48577194
 C           -0.83469256        2.23142141        2.08109730
 C           -1.67462298       -1.30216760        1.66774570
 C           -1.80261711        0.09171092        1.53516176
 C           -0.69242827       -2.96199028        0.25936036
 C           -1.74681812       -2.09509508        0.52240892
 C            1.29104373       -2.41174556       -0.82097546
 C           -0.05785701       -2.91065094       -1.04333831
 C            2.04952195       -0.12634430       -0.88470914
 C            1.71511159       -1.32034026       -1.55936578
 C            1.81774345        2.26689247       -0.82441597
 C            2.00358019        1.10850092       -1.56521147
 C            0.06613608        3.37746187        0.25715946
 C           -1.10688683        2.67448805        0.72261053
 C            0.58617421        3.01452455       -1.03947069
 C           -2.27066220        0.61246751        0.32328947
 C           -1.73495256        1.80939109       -0.16418934
 C           -2.50821640       -1.64777990       -0.54706086
 C           -2.90620334       -0.25419471       -0.55960516
 C           -0.77318392       -2.40620915       -2.12412403
 C           -2.08830740       -1.98103547       -1.90057401
 C            1.27032825       -1.28223347       -2.87701619
 C           -0.03065143       -1.86653707       -3.17618171
 C            1.52130219        1.16137921       -2.87181745
 C            1.38571351       -0.05817887       -3.62282994
 C           -0.28959565        2.50961089       -1.98850431
 C           -1.50676036        1.96499545       -1.54115722
 C            0.32239974        1.95100459       -3.10322894
 C           -3.07631959        0.13957190       -1.94756898
 C           -2.71499125       -1.00205323       -2.77509908
 C           -2.33331728        1.28313453       -2.43494850
 C           -0.67156292       -1.04766779       -4.18994887
 C            0.21447410        0.06572609       -4.47918696
 C           -0.48110564        1.28448868       -4.10335237
 C           -1.98564907       -0.50284838       -3.92215992
 C           -1.84232739        0.93665662       -3.75934414
