56
Modified xyz file
 C            1.52692335        0.01022614        3.65639948
 C            0.68304671       -1.15293305        3.44354402
 C            1.28457632       -1.95724741        2.40861415
 C            2.57466026       -0.01356509        2.65039775
 C            2.46945969       -1.25747237        1.92834266
 C            2.49512210        1.21186554        1.89419823
 C            0.71658522        1.19310617        3.42295756
 C            1.35121777        1.96921534        2.38629867
 C           -0.66722572       -0.69063524        3.23667857
 C           -0.64385153        0.76636254        3.20629647
 C           -1.47769890       -1.34808654        2.31777103
 C            0.46507689       -2.58236144        1.47237588
 C           -0.91508963       -2.30727479        1.44887505
 C            1.09030713       -3.07083172        0.32378236
 C            2.72635492       -1.27424761        0.56188640
 C            2.31309867       -2.41929112       -0.11546583
 C            2.71946403        1.17740433        0.52038494
 C            2.87008622       -0.05736853       -0.13817119
 C            2.32058324        2.30144495       -0.20502940
 C            0.56148516        2.63443606        1.45501384
 C            1.22660702        3.09972391        0.32282512
 C           -1.41438471        1.41677196        2.24602984
 C           -0.82395424        2.37213966        1.39765917
 C           -2.63963584       -0.67438396        1.94796401
 C           -2.58890819        0.77488969        1.84947424
 C           -3.46408229       -1.16912392        0.86838798
 C           -1.68842135       -2.85700093        0.42141535
 C           -2.97046484       -2.27010283        0.07673053
 C            0.31219207       -3.40157490       -0.85985799
 C           -1.05421896       -3.18458921       -0.83967043
 C            2.35809215       -2.47559718       -1.55933799
 C            1.05935156       -2.93857602       -2.01821468
 C            2.97265412       -0.06244908       -1.53293053
 C            2.67538715       -1.26854066       -2.28383073
 C            2.16614755        2.23462539       -1.64987229
 C            2.38271176        1.02547408       -2.28677221
 C            0.48566298        3.64059563       -0.79451129
 C            0.96924434        2.98377449       -1.99716808
 C           -1.59540870        2.91730678        0.36637699
 C           -0.95317032        3.53028757       -0.78194282
 C           -3.26666502        1.16167732        0.62190612
 C           -3.71838941       -0.05648863       -0.03106896
 C           -2.70339340        2.14992071       -0.16592908
 C           -2.88084429       -1.81633540       -1.30551947
 C           -1.62221178       -2.28299772       -1.82980784
 C           -3.14864887       -0.39865808       -1.32326040
 C            0.48219885       -1.88469284       -2.83534322
 C            1.54823963       -0.96731026       -3.15750938
 C            1.29070108        0.44683876       -3.05394372
 C           -0.77756108       -1.39751367       -2.49355225
 C           -0.14903845        2.26452626       -2.58334842
 C           -1.34891731        2.76571262       -1.95810337
 C           -2.35001779        1.81824306       -1.53741209
 C           -2.22777466        0.47788982       -1.89320299
 C           -0.00529283        0.89948791       -2.82249015
 C           -1.00196787       -0.00669646       -2.39931960
