56
Modified xyz file
 C            1.50939130        0.05918133        3.94096850
 C            0.68072433       -1.12040015        3.78118042
 C            1.22360344       -1.91650368        2.69227720
 C            2.56072713       -0.00322536        2.94295421
 C            2.45094224       -1.27488717        2.24931041
 C            2.50848880        1.22037904        2.15976813
 C            0.68317275        1.21367992        3.63605389
 C            1.37639235        2.00220466        2.63710076
 C           -0.69684441       -0.67759355        3.67367363
 C           -0.65663886        0.73739059        3.33292896
 C           -1.56922555       -1.48913803        2.97251121
 C            0.32687288       -2.44437010        1.76104086
 C           -1.00100216       -2.55830685        2.16618768
 C            0.62808585       -2.37909826        0.38998758
 C            2.77978292       -1.31300263        0.90611911
 C            1.91151403       -2.02823756       -0.01261302
 C            2.75562444        1.14708185        0.78898818
 C            3.15801415       -0.07503524        0.24606171
 C            2.23255674        2.13176806       -0.05543664
 C            0.61417775        2.68998665        1.70860859
 C            1.16872824        2.91912129        0.39022479
 C           -1.28918015        1.18960673        2.16907824
 C           -0.78475352        2.31611081        1.52292411
 C           -2.54142813       -0.85568328        2.11178735
 C           -2.19841858        0.35595160        1.50589076
 C           -2.01158090       -2.92380933        1.19726363
 C           -3.07900868       -1.93754798        1.31456719
 C           -0.38844990       -2.47319340       -0.57234456
 C           -1.63967675       -2.96743636       -0.19812385
 C           -0.19960063       -1.93224293       -1.85855327
 C            2.10776860       -1.44648936       -1.32837623
 C            3.00913275       -0.30828010       -1.17575936
 C            1.03019988       -1.35991785       -2.20720919
 C            2.48329375        2.06083426       -1.42568595
 C            2.86143885        0.78343448       -2.01388096
 C            1.55483964        2.70848487       -2.33772965
 C            0.04057913        3.16691256       -0.49135711
 C           -1.11839716        2.54953683        0.12924265
 C            0.22322511        3.03269054       -1.85605270
 C           -2.49837761        0.57561020        0.14781108
 C           -1.83651008        1.58468949       -0.56770576
 C           -3.53876944       -1.64415503       -0.01989268
 C           -2.82080228       -2.53609516       -0.91531522
 C           -3.33986894       -0.30569644       -0.53414851
 C           -1.30165761       -1.67046203       -2.67695026
 C           -2.64335216       -1.82386498       -2.15607382
 C           -3.15786336       -0.47416059       -1.95746410
 C           -0.72863725        2.24186955       -2.61948835
 C           -1.73140185        1.52112754       -1.96759252
 C           -1.33500776       -0.41987949       -3.39959996
 C           -2.25149183        0.42036685       -2.64449005
 C            1.09440902       -0.44964637       -3.26856709
 C            2.08995501        0.60917098       -3.22823130
 C            1.41809517        1.86512699       -3.51045694
 C           -0.13139651        0.13318081       -3.79546471
 C            0.00760578        1.57286075       -3.67994706
