56
Modified xyz file
 C            1.22817755        0.03897811        3.70808319
 C            2.50717446       -0.26155928        3.09638810
 C            2.42304874       -1.59765190        2.53327692
 C            0.34453700       -1.09332258        3.47064691
 C            1.04381140       -2.04641350        2.64267619
 C           -0.91486089       -0.58002234        2.99858360
 C            0.52478600        1.24722097        3.30918260
 C           -0.83488704        0.87250513        2.96589133
 C            1.17597063        2.19976889        2.53920461
 C            3.01268258        0.62424486        2.06410395
 C            2.47570651        1.89913751        1.94132636
 C            3.03164354       -1.56779026        1.21478039
 C            3.22210511       -0.16911540        0.85957706
 C            2.52647339       -2.42817859        0.25592151
 C            0.42668562       -2.55958526        1.50254895
 C            1.27258708       -3.10586870        0.54151696
 C           -1.57121938       -1.22088760        1.95738810
 C           -0.85990094       -2.11407225        1.12675528
 C           -2.67967804       -0.55075498        1.45788033
 C           -1.52652989        1.54940855        1.95913195
 C           -2.63912464        0.90314961        1.41804854
 C            0.40813750        2.96333971        1.57264860
 C           -0.88946369        2.57040214        1.23606502
 C            2.51011990        2.52839164        0.63565690
 C            1.31901489        3.34615124        0.50982944
 C            2.76482861        0.31070110       -0.37397788
 C            2.58953301        1.67999974       -0.54106715
 C            2.39958143       -1.94556162       -1.10211726
 C            2.21950694       -0.57622564       -1.30848390
 C            0.73405000       -3.53254716       -0.72720679
 C            1.53982460       -2.90336608       -1.76615715
 C           -1.42071559       -2.53784563       -0.09911162
 C           -0.64858513       -3.24377266       -1.02024201
 C           -3.31608594       -1.01995131        0.25410646
 C           -2.59851004       -1.95961716       -0.57175693
 C           -3.19986947        1.32946545        0.14922996
 C           -3.64577768        0.13929284       -0.56067285
 C           -1.41490688        3.00080420        0.01296998
 C           -2.58591299        2.35346111       -0.55331226
 C            0.85601842        3.23997154       -0.85763652
 C            1.60412564        2.15720033       -1.49123582
 C           -0.50867582        3.32254316       -1.08429851
 C            1.29730033       -0.11205510       -2.26573983
 C            0.93350662        1.23917453       -2.29655474
 C            0.64119781       -2.43282529       -2.79141404
 C           -0.69973029       -2.85218555       -2.41838519
 C            0.57867118       -1.01221435       -3.05795054
 C           -2.65303700       -1.47402401       -1.94426020
 C           -3.16689944       -0.11450927       -1.91024097
 C           -1.61233207       -1.79114525       -2.80752483
 C           -0.80624042       -0.71866333       -3.37595660
 C           -2.36654695        2.20531334       -1.98359686
 C           -1.03460722        2.70152979       -2.28210424
 C           -0.28132190        1.61331736       -2.87570580
 C           -2.49616538        0.89193780       -2.59630535
 C           -1.23922175        0.59432138       -3.27040335
