56
Modified xyz file
 C            1.26846961       -0.05472580        3.69031642
 C            2.44842948       -0.38062109        2.92717215
 C            2.26037024       -1.72331420        2.39108103
 C            0.43728985       -1.24666351        3.70620326
 C            0.87265689       -2.06511509        2.59162431
 C           -0.93479216       -0.79778953        3.73093320
 C            0.42651605        1.02749119        3.22440199
 C           -0.92282330        0.65319359        3.58582356
 C            0.64911328        1.57876263        1.96249982
 C            2.79960451        0.46127138        1.80218317
 C            1.88440902        1.39701547        1.31643072
 C            2.77366387       -1.70956009        1.04237671
 C            3.43607382       -0.42817106        0.85784947
 C            1.98819951       -2.19886956        0.00405836
 C            0.03752658       -2.20353035        1.48008924
 C            0.59341453       -2.32098329        0.18828436
 C           -1.84105699       -1.30271043        2.72201393
 C           -1.34583551       -2.04192891        1.64549283
 C           -2.00117383        0.99900883        2.67990914
 C           -2.76486899       -0.21851609        2.45440319
 C           -0.41881338        2.17330791        1.27841744
 C           -1.74326227        1.83470536        1.59678641
 C           -0.15588844        2.91691505        0.13113472
 C            2.06670468        1.88900313        0.02001399
 C            1.14266507        2.78757016       -0.50545193
 C            3.62465308        0.02058487       -0.43787602
 C            2.97686174        1.26143328       -0.84100320
 C            2.51287788       -2.04407565       -1.27773253
 C            3.42308416       -0.93494694       -1.51279071
 C            1.64568345       -2.14284983       -2.42696421
 C           -0.25254119       -2.49949834       -0.92189390
 C            0.22632528       -2.24134681       -2.20182501
 C           -2.19159016       -2.25413276        0.56634714
 C           -1.62782164       -2.39336445       -0.75808181
 C           -3.56986370       -0.30198231        1.32696480
 C           -3.40025342       -1.44730227        0.44743325
 C           -2.73357344        1.94882408        0.62341723
 C           -3.70802535        0.87732786        0.48820927
 C           -1.16292201        3.00127252       -0.91723011
 C           -2.37968951        2.37224530       -0.71668105
 C            0.93576557        2.82860646       -1.94289379
 C           -0.49318393        2.78874024       -2.18591317
 C            2.67506395        1.15680174       -2.26351046
 C            2.95066899       -0.20690286       -2.67658665
 C            1.88476664       -0.98447224       -3.27675507
 C            1.55253742        1.80426193       -2.76243812
 C           -0.42921259       -1.20782614       -2.98836994
 C           -0.78532048        1.57194188       -2.92453466
 C            0.60429788       -0.34508720       -3.52913715
 C            0.47975683        1.02830684       -3.38215184
 C           -2.35277565       -1.49627515       -1.64535974
 C           -3.49661618       -0.97972595       -0.92623492
 C           -3.70033565        0.44810819       -0.90221562
 C           -2.75949779        1.29087776       -1.61451474
 C           -1.61783220       -0.67111143       -2.49727318
 C           -1.78788011        0.72582166       -2.44645158
