56
Modified xyz file
 C            1.13380527       -0.00000003        4.43499953
 C            0.41736327       -1.17412648        3.96515141
 C            1.35187670       -2.00166859        3.24135065
 C            2.44422440        0.00000000        3.80516974
 C            2.58563124       -1.24514420        3.07923520
 C            2.58563122        1.24514421        3.07923521
 C            0.41736303        1.17412650        3.96515126
 C            1.35187684        2.00166849        3.24135084
 C           -0.77271757       -0.72412569        3.27139173
 C           -0.77271686        0.72412566        3.27139260
 C           -1.17860474       -1.35681133        2.09889959
 C            0.96235300       -2.48519558        1.93055659
 C           -0.32935129       -2.27802454        1.45979872
 C            2.88876003       -1.21228693        1.65687267
 C            2.05530288       -2.22139285        1.02158074
 C            2.88875998        1.21228705        1.65687257
 C            3.10564383       -0.00000006        0.99633246
 C            0.96235238        2.48519571        1.93055591
 C            2.05530323        2.22139273        1.02158122
 C           -1.17860619        1.35681134        2.09889775
 C           -0.32934989        2.27802446        1.45980034
 C           -2.14001865       -0.70085229        1.32660525
 C           -2.14001713        0.70085231        1.32660721
 C           -2.68893660       -1.40098231        0.25735448
 C           -0.57012496       -2.57247448        0.11797273
 C           -1.88309769       -2.45060417       -0.32726180
 C            1.76168989       -2.08977378       -0.33034783
 C            0.49880782       -2.47780307       -0.79243216
 C            3.04136115        0.00000006       -0.39372756
 C            2.49613856       -1.16538550       -1.06985292
 C            1.76168922        2.08977395       -0.33034865
 C            2.49613881        1.16538537       -1.06985258
 C           -0.57012627        2.57247459        0.11797129
 C            0.49880886        2.47780288       -0.79243102
 C           -2.68893727        1.40098228        0.25735349
 C           -1.88309702        2.45060418       -0.32726106
 C           -3.34918947       -0.69288432       -0.82516584
 C           -3.34918937        0.69288439       -0.82516543
 C           -2.18984212       -2.52315641       -1.74067150
 C           -3.06911236       -1.40954267       -2.06067756
 C            0.25776447       -2.41765116       -2.16641550
 C           -1.09439510       -2.51673287       -2.68112518
 C            2.00823043       -0.72840075       -2.36948636
 C            2.00823019        0.72840080       -2.36948659
 C            0.95591024       -1.41872418       -2.95599328
 C            0.25776398        2.41765122       -2.16641595
 C            0.95591048        1.41872414       -2.95599308
 C           -2.18984224        2.52315635       -1.74067169
 C           -3.06911233        1.40954269       -2.06067764
 C           -1.09439494        2.51673290       -2.68112508
 C           -2.49629380       -0.69540843       -3.19091024
 C           -1.30034287       -1.41218207       -3.60604492
 C           -0.04031895       -0.69560563       -3.73177229
 C           -0.04031907        0.69560564       -3.73177232
 C           -2.49629382        0.69540844       -3.19091022
 C           -1.30034286        1.41218204       -3.60604494
