56
Modified xyz file
 C            1.26484123       -0.06787373        4.08513467
 C            2.48890603       -0.45946401        3.41849276
 C            2.21778328       -1.71154391        2.71765265
 C            0.39902137       -1.22938774        4.07703475
 C            0.83550877       -2.05937517        2.96501103
 C           -0.96066203       -0.73203684        4.07837476
 C            0.48779477        1.02764570        3.52653160
 C           -0.90245072        0.68603927        3.73476774
 C            0.88171200        1.59588866        2.31337774
 C            3.05385538        0.45739209        2.45176173
 C            2.22590996        1.54563256        1.95795595
 C            2.65880824       -1.55103249        1.34902279
 C            3.43119190       -0.33207838        1.29551276
 C            1.77263343       -1.79100374        0.30529676
 C           -0.02586110       -2.26314155        1.88505020
 C            0.45660587       -2.20477392        0.56911712
 C           -1.90674523       -1.35172771        3.17545233
 C           -1.39811248       -2.19100177        2.10283054
 C           -1.84190728        0.91414545        2.65828695
 C           -2.64860281       -0.27804740        2.54345982
 C           -0.06961734        1.90295875        1.32920423
 C           -1.40909826        1.50759282        1.47814403
 C            0.34598101        2.45436849        0.10703053
 C            2.59079072        1.73187635        0.57070107
 C            3.25416027        0.51026634        0.13244738
 C            1.68180077        2.31140154       -0.30616045
 C            2.08569685       -1.27454166       -0.95495004
 C            2.79721706       -0.06812377       -1.04707708
 C            1.36719884       -1.74322860       -2.04820807
 C           -0.42720782       -2.39110513       -0.50543852
 C            0.10011364       -2.40810922       -1.80120782
 C           -2.27605365       -1.97727424        0.97331247
 C           -2.98099804       -0.72321331        1.20744308
 C           -1.80819072       -2.21291228       -0.31376299
 C           -2.21079499        1.37207894        0.34151673
 C           -2.97529333        0.20697857        0.17337684
 C           -0.63443706        2.82468952       -0.81982065
 C           -1.93759502        2.18793842       -0.74975019
 C           -0.29580785        2.97208846       -2.22557878
 C            1.95868117        2.12254624       -1.65837693
 C            2.47548808        0.82725000       -2.06111641
 C            1.01892747        2.56679797       -2.66210454
 C            1.21340466       -0.90802978       -3.22975585
 C            1.71576399        0.38419769       -3.21311030
 C            0.86741236        1.49164890       -3.63181190
 C           -0.75831027       -2.15023994       -2.94537824
 C           -0.11047938       -1.14900068       -3.77732351
 C           -2.56878348       -1.64688507       -1.33452095
 C           -3.12053908       -0.32431030       -1.10337498
 C           -2.11281139       -1.71392270       -2.70401972
 C           -2.29802310        1.75366273       -2.09093080
 C           -1.27190318        2.22678926       -3.00406626
 C           -0.55422679        1.26902811       -3.83323238
 C           -1.03094538       -0.03312123       -3.94299105
 C           -2.83337270        0.48715886       -2.26940625
 C           -2.27837865       -0.39155541       -3.28982635
