56
Modified xyz file
 C            1.50325930        0.05679788        4.08652780
 C            0.68480963       -1.11307528        3.82870269
 C            1.49173225       -2.04148597        3.07297293
 C            2.63472785        0.00411353        3.17435122
 C            2.68344434       -1.32944074        2.62534694
 C            2.51299699        1.12628776        2.26356945
 C            0.72045029        1.22749640        3.73645987
 C            1.51976160        2.02449238        2.82933375
 C           -0.56702334       -0.66343408        3.25124512
 C           -0.58773790        0.78817270        3.27697471
 C           -1.08317392       -1.30093677        2.13232302
 C            0.90853152       -2.66506512        1.90050351
 C           -0.40286020       -2.37059239        1.52847250
 C            2.75153556       -1.48718451        1.18634304
 C            1.92886625       -2.63790432        0.87454434
 C            2.52482223        0.92025033        0.87964643
 C            2.68081636       -0.37350123        0.34655495
 C            2.09345098        1.96520680        0.05420686
 C            0.84115720        2.86090991        1.96276696
 C            1.33965471        3.00001733        0.60862073
 C           -1.17535751        1.47667017        2.21135460
 C           -0.59922574        2.69282134        1.83695935
 C           -2.05345556       -0.62900959        1.40250428
 C           -1.97038905        0.76922201        1.28976328
 C           -2.78789248       -1.36849865        0.48833888
 C           -0.83363668       -2.80715812        0.27181848
 C           -2.13847955       -2.51462634       -0.11993222
 C            1.52852293       -2.81459355       -0.43761026
 C            0.12576044       -3.09381798       -0.70634605
 C            2.43358610       -0.59546487       -1.01123108
 C            1.95520831       -1.84112041       -1.42881047
 C            2.11159222        1.80446395       -1.32979802
 C            2.36648548        0.48814695       -1.87829749
 C            1.08039078        2.43605975       -2.14734884
 C            0.24845258        3.56998765       -0.15912685
 C           -0.97629315        3.30737123        0.58281159
 C            0.05185387        3.12352558       -1.52420286
 C           -2.47612187        1.42189302        0.14764709
 C           -1.87367248        2.59294109       -0.29198147
 C           -1.31126053        2.61802156       -1.63208064
 C           -3.53037763       -0.67497855       -0.53578738
 C           -3.17394161        0.69628231       -0.81179815
 C           -2.47413943       -2.51462669       -1.53365031
 C           -3.41102197       -1.43134212       -1.77028678
 C           -0.11438587       -2.73001289       -2.09736964
 C            1.01738160       -1.92799419       -2.54009224
 C           -1.40102762       -2.39974285       -2.50211233
 C            1.61485426        0.36958764       -3.11749757
 C            0.74687995        1.53001853       -3.22588963
 C            0.80552901       -0.81462533       -3.34136543
 C           -1.61072279        1.56088231       -2.49460400
 C           -2.72294320        0.77300606       -2.19599026
 C           -2.82912243       -0.55545018       -2.77150831
 C           -1.62780210       -1.18754447       -3.27950711
 C           -0.62096030        1.05435552       -3.34498684
 C           -0.55348969       -0.37577445       -3.62145214
