56
Modified xyz file
 C            1.24023627        0.16062629        4.00618915
 C            2.43306248       -0.04597961        3.21088737
 C            2.43279687       -1.43116372        2.77299823
 C            0.41966154       -1.03748412        3.89190956
 C            1.09041496       -1.94641190        2.97717979
 C           -0.94198028       -0.62214278        3.60450966
 C            0.39985961        1.29899230        3.70016515
 C           -0.97313887        0.82645338        3.63354154
 C            0.65352564        2.06269553        2.48767861
 C            2.64258191        0.76897828        2.02671310
 C            1.65386658        1.66472826        1.60655106
 C            2.99533140       -1.46598461        1.43428884
 C            3.28562541       -0.09119455        1.04903535
 C            2.42771124       -2.32456653        0.50242727
 C            0.39232503       -2.46768927        1.88871564
 C            1.09838336       -2.86683121        0.75492232
 C           -1.65336737       -1.28594710        2.61463709
 C           -0.99023659       -2.30567512        1.81320461
 C           -2.54172770       -0.53771731        1.73214938
 C           -1.62138626        1.53475020        2.54546823
 C           -0.63919202        2.43162053        1.95230431
 C           -2.49677204        0.85816999        1.69730731
 C           -0.76358133        2.72410715        0.60054484
 C            1.51637888        1.95007891        0.24558228
 C            0.34791900        2.55645123       -0.23996154
 C            3.22711095        0.27104396       -0.28867479
 C            2.45989899        1.44746941       -0.65130421
 C            2.51248171       -1.99962881       -0.91164232
 C            2.95826808       -0.74071640       -1.30011118
 C            0.41470427       -2.98519476       -0.52484177
 C            1.35521497       -2.58755538       -1.56530206
 C           -1.65841482       -2.35296600        0.52129987
 C           -2.65047385       -1.28801796        0.48839716
 C           -0.93403939       -2.64270713       -0.62965594
 C           -2.88877013       -0.61227094       -0.70441953
 C           -2.87609871        1.51144574        0.52795227
 C           -2.04463898        2.60868746        0.06837533
 C           -3.22882431        0.73643036       -0.65080309
 C           -2.25699818        2.75664496       -1.35540610
 C           -2.99979006        1.58887755       -1.80697758
 C            0.21919396        2.78227130       -1.61460474
 C           -1.10005109        2.91112702       -2.20711094
 C            2.12522216        1.32168895       -2.05763840
 C            2.33226541       -0.07047621       -2.43118867
 C            1.02749353        2.01307048       -2.54495384
 C            0.87396944       -2.03290601       -2.74353098
 C            1.36992949       -0.73599786       -3.18422217
 C           -1.45107916       -2.24340963       -1.85933727
 C           -2.43803358       -1.17378430       -1.90090168
 C           -0.55428888       -2.06811492       -2.98807600
 C           -2.31500469        1.04438899       -2.96247962
 C           -1.20223226        1.92974626       -3.27512318
 C            0.12349006        1.36728579       -3.48611304
 C            0.25166825        0.00649906       -3.74615218
 C           -2.13450077       -0.32907454       -3.05079643
 C           -0.92597015       -0.84272063       -3.67360611
