56
Modified xyz file
 C            1.50683955       -0.05559133        3.86058858
 C            0.68285239       -1.24392452        3.76631888
 C            1.27386414       -2.11854087        2.76633041
 C            2.51500614       -0.13908394        2.81813274
 C            2.27245592       -1.34118953        2.05068459
 C            2.50664428        1.12007628        2.10910330
 C            0.66280891        1.08876786        3.56010910
 C            1.33470871        1.86838636        2.54567873
 C           -0.69464687       -0.81682650        3.58728317
 C           -0.66933433        0.60334725        3.27025478
 C           -1.54551479       -1.64641101        2.87198039
 C            0.43016747       -2.94763761        2.04396704
 C           -1.00070179       -2.86600586        2.29530992
 C            0.60655322       -3.05226395        0.60498388
 C            2.19699018       -1.22929597        0.66371255
 C            1.41913880       -2.13689205       -0.06715025
 C            2.79088557        1.12655736        0.74890059
 C            2.70859270       -0.08510419        0.03875090
 C            2.49650443        2.31434588        0.08889886
 C            0.57563723        2.50492487        1.56740974
 C            1.28063750        3.00707696        0.47364671
 C           -1.31148869        1.05888096        2.12032043
 C           -0.77011901        2.14173281        1.40216375
 C           -2.43874762       -1.06164056        1.88575552
 C           -2.35104877        0.29215515        1.57648209
 C           -1.68707794       -3.11586101        1.04038653
 C           -0.68363951       -3.40720739        0.03676070
 C           -2.60399027       -2.01614400        0.79922031
 C           -0.94914741       -3.03800977       -1.27029808
 C            1.25967683       -1.97203552       -1.44746530
 C            0.13462190       -2.50847540       -2.07601041
 C            2.82917114       -0.08778973       -1.34990844
 C            2.02082481       -1.01629130       -2.11975342
 C            2.63040759        2.39449006       -1.34814373
 C            2.86331525        1.16906493       -2.07772851
 C            0.58182487        3.38572217       -0.74329530
 C            1.41834488        3.00786125       -1.87036808
 C           -1.49279771        2.69625661        0.34745837
 C           -0.78494537        3.17731985       -0.82616213
 C           -3.00399832        0.72447224        0.42969275
 C           -2.68636577        2.02317623       -0.12052173
 C           -2.75291452       -1.53544740       -0.50140700
 C           -2.11930114       -2.21321274       -1.54736578
 C           -3.16222475       -0.21020664       -0.67472799
 C           -0.48043736       -1.77816728       -3.16873083
 C           -1.86724131       -1.53095583       -2.80547373
 C            1.43423193       -0.28091212       -3.23679227
 C            1.87165926        1.09524133       -3.13602727
 C            0.87455358        2.12090668       -2.88385491
 C            0.11172385       -0.52124717       -3.57630230
 C           -1.32709471        2.47368571       -1.97999033
 C           -2.58823175        1.88664469       -1.56622090
 C           -2.86739955        0.50635641       -1.90954964
 C           -2.10589356       -0.10483891       -2.89323377
 C           -0.47126074        1.76050208       -2.82235943
 C           -0.87507948        0.52925811       -3.35144378
