56
Modified xyz file
 C            1.44628783       -0.03758650        3.99704621
 C            0.64045188       -1.21914690        3.74040790
 C            1.47050529       -2.16305046        3.03250293
 C            2.63360855       -0.13083644        3.16512002
 C            2.71440113       -1.48694630        2.68011921
 C            2.58184810        0.94656905        2.19661430
 C            0.68639662        1.11677235        3.55192440
 C            1.46776010        1.81468702        2.55400216
 C           -0.59499125       -0.78523494        3.11926102
 C           -0.63182218        0.66477375        3.16561725
 C           -1.06570714       -1.41394162        1.96637257
 C            0.95533511       -2.76546371        1.81775828
 C           -0.30050508       -2.40612008        1.32569398
 C            2.92544978       -1.70311333        1.26283267
 C            2.06786817       -2.81546058        0.89277040
 C            2.82935441        0.69568942        0.84491262
 C            3.03796720       -0.61837455        0.38736027
 C            2.48263653        1.70019716       -0.05841485
 C            0.78639253        2.46497078        1.53028156
 C            1.46609254        2.66432914        0.33294007
 C           -1.25969096        1.32063550        2.11647194
 C           -0.61190659        2.40227058        1.50590070
 C           -2.07580791       -0.76805041        1.25113932
 C           -2.21847186        0.61689176        1.39001425
 C           -2.64741031       -1.42356105        0.16714944
 C           -0.62016285       -2.77774122        0.01560536
 C           -1.87772059       -2.46209178       -0.49071505
 C            1.79650221       -3.01803234       -0.45004184
 C            0.40724094       -3.11441686       -0.87491535
 C            2.99753665       -0.89219836       -0.98085988
 C            2.48440767       -2.18113749       -1.41758597
 C            2.28197404        1.39372915       -1.46417663
 C            2.50862044        0.10814522       -1.91405698
 C            0.72466631        3.03977153       -0.85831187
 C            1.09271610        2.10096851       -1.90867296
 C           -1.29512572        3.10539278        0.51503008
 C           -0.60435003        3.41379845       -0.73016714
 C           -3.04166447        1.33027557        0.52528497
 C           -2.64372926        2.68187520        0.17548801
 C           -3.35705044       -0.66808897       -0.85397015
 C           -3.55746659        0.69288072       -0.67473102
 C           -2.03151012       -2.28548055       -1.92396572
 C           -2.88817244       -1.13530556       -2.14842303
 C            0.34570938       -2.65972872       -2.25871058
 C            1.58158078       -1.95237027       -2.53286538
 C            1.52100483       -0.52226053       -2.77447415
 C           -0.83855207       -2.11377236       -2.72817827
 C            0.09419967        1.42205155       -2.61164258
 C           -2.17715433       -0.20908373       -3.01721999
 C            0.27500599        0.07800144       -2.95630138
 C           -0.83502869       -0.73480151       -3.20179386
 C           -1.50664749        3.10570570       -1.82409581
 C           -2.81685319        2.84714263       -1.25621941
 C           -3.28680881        1.58311342       -1.79208321
 C           -1.17158113        2.00063402       -2.70839032
 C           -2.34762926        1.15212472       -2.81463849
