56
Modified xyz file
 C            1.24086834       -0.02273990        3.52425588
 C            2.47621673       -0.30274322        2.83232293
 C            2.41821184       -1.67780589        2.36730317
 C            0.39571377       -1.20555946        3.41940130
 C            1.04885430       -2.13398053        2.52488563
 C           -0.93784747       -0.75356538        3.09393173
 C            0.44436462        1.11115717        3.09592828
 C           -0.93767704        0.69547126        3.22459077
 C            0.82281548        1.85582509        1.97595150
 C            2.83540065        0.52277269        1.70020511
 C            2.07913335        1.64515894        1.37365013
 C            3.01148795       -1.72818086        1.04311710
 C            3.27979898       -0.35422461        0.62701787
 C            2.47599856       -2.61739109        0.12512993
 C            0.37028499       -2.60327934        1.40245918
 C            1.12912099       -3.12524728        0.35270964
 C           -1.62221652       -1.33462115        2.02917298
 C           -0.97102721       -2.24915359        1.18514703
 C           -2.79354752       -0.71228126        1.59954464
 C           -1.91214801        1.41952903        2.55792833
 C           -2.99630175        0.68999253        1.92342010
 C           -0.14429441        2.65955485        1.35124209
 C           -1.49900685        2.47065766        1.64163717
 C            0.19240977        3.43492000        0.24468547
 C            2.36268363        2.23493910        0.14936223
 C            1.48478002        3.25663421       -0.37525382
 C            3.07247990        0.04210453       -0.69988543
 C            2.76087156        1.37726440       -0.95649675
 C            2.59022125       -2.30026728       -1.28194826
 C            2.75362929       -0.91133959       -1.66899545
 C            0.52051371       -3.36606189       -0.94347082
 C            1.41294105       -2.82075550       -1.95521389
 C           -1.62369843       -2.70794387        0.03835267
 C           -0.84674350       -3.19255209       -1.09103767
 C           -3.26621448       -0.91215761        0.24256134
 C           -2.75282032       -1.96312487       -0.49620686
 C           -3.35007654        1.38388775        0.69550865
 C           -2.47747202        2.53162557        0.56336189
 C           -3.38323456        0.40374014       -0.37547258
 C           -0.77694538        3.57994051       -0.82720150
 C           -2.04998139        2.89360961       -0.70443441
 C            1.26533571        2.97048454       -1.78598671
 C            1.88268303        1.69152482       -2.07053929
 C           -0.14313548        3.13136794       -2.05555995
 C            1.73142228       -0.60343280       -2.66166771
 C            0.91952961       -1.79218941       -2.85713786
 C            1.14737951        0.66148252       -2.65520438
 C           -1.34185576       -2.52548758       -2.28438543
 C           -2.51101997       -1.75158640       -1.90946415
 C           -0.44731778       -1.65691221       -3.03343280
 C           -2.72411102        0.67145054       -1.57926356
 C           -2.13367822        1.92039467       -1.78897481
 C           -0.88945730        1.98898593       -2.54025660
 C           -0.23612623        0.80079260       -2.86779924
 C           -2.32525970       -0.39274910       -2.38641845
 C           -1.03193601       -0.32793483       -3.05307634
