56
Modified xyz file
 C            1.55257259        0.08719900        4.26186912
 C            0.75966081       -1.11396474        4.09598104
 C            1.64116295       -2.09794766        3.50972022
 C            2.65877158        0.00291268        3.31923027
 C            2.75148867       -1.37130261        2.89828702
 C            2.44415464        1.02495876        2.31218425
 C            0.73248199        1.20612214        3.84985485
 C            1.51532286        1.97297675        2.90268552
 C           -0.45996192       -0.75059475        3.38263220
 C           -0.55213238        0.69650308        3.39233236
 C           -0.82228630       -1.44746885        2.23069391
 C            1.09622980       -2.96836274        2.49318148
 C           -0.22015882       -2.67294591        1.95121174
 C            2.72356606       -1.66515332        1.48030003
 C            2.01277493       -2.91480009        1.37081511
 C            2.28884289        0.67521451        0.96110587
 C            2.43372360       -0.66011292        0.54731611
 C            1.71288813        1.61662189        0.09521313
 C            0.80895019        2.78349617        2.04119074
 C            1.20109205        2.79232744        0.64954542
 C           -1.14316015        1.34989241        2.31593643
 C           -0.63145197        2.60641594        2.00207731
 C           -1.50901687       -0.78562175        1.20859279
 C           -1.74866304        0.59730885        1.29781294
 C           -1.83944387       -1.48641632        0.03895370
 C           -0.17783967       -3.12599251        0.57709894
 C            1.22267518       -3.10969705        0.18609061
 C           -1.08285802       -2.60199418       -0.34078700
 C            1.98173055       -1.03965583       -0.72608678
 C            1.52808926       -2.35811176       -0.93204716
 C            1.35217115        1.24733675       -1.21149563
 C            1.65692737       -0.04570497       -1.66033749
 C            0.54895152        2.10775821       -1.99111993
 C            0.11865401        3.47638990       -0.01819306
 C           -1.07311402        3.26318248        0.79600454
 C           -0.21734431        3.07775827       -1.35976053
 C           -2.37733556        1.26432181        0.23524334
 C           -2.03616160        2.58798606       -0.04458986
 C           -1.66227337        2.94183370       -1.39998513
 C           -2.67948527       -0.88930850       -0.89722315
 C           -2.98714498        0.52300044       -0.77245585
 C           -2.50673356       -1.18679753       -2.31316962
 C           -0.72311437       -2.73175366       -1.68327785
 C            0.68829526       -2.59632114       -2.00401201
 C           -1.47763207       -2.03422922       -2.70510532
 C            1.33616070       -0.42904780       -2.96333580
 C            0.80369662       -1.75554181       -3.16584047
 C           -0.52687952       -1.61469433       -3.72798346
 C            0.09622939        1.70247668       -3.24158185
 C            0.56025687        0.45817376       -3.80224248
 C           -0.60635808       -0.27738145       -4.27917827
 C           -2.21613011        2.22333183       -2.44671800
 C           -3.05979451        1.08562486       -2.11641248
 C           -2.77717830        0.02564471       -3.06892453
 C           -1.32890776        1.81136777       -3.52339152
 C           -1.78496120        0.52278655       -4.00790579
