56
Modified xyz file
 C            1.15762696       -0.02153412        3.74391724
 C            2.37478435       -0.36586026        3.04693388
 C            2.26111504       -1.75410727        2.62510422
 C            0.31857351       -1.21040809        3.77091814
 C            0.87341856       -2.14198297        2.81044056
 C           -1.04848517       -0.77526464        3.60286709
 C            0.34340993        1.05784435        3.22448256
 C           -1.02959495        0.67196660        3.45453996
 C            0.65974106        1.64685897        2.00101771
 C            2.74480446        0.40047331        1.87546529
 C            1.88883797        1.38308027        1.37220375
 C            2.84586693       -1.85581212        1.29801308
 C            3.35148807       -0.53537033        0.94988472
 C            2.18165850       -2.60566367        0.33503615
 C            0.12646990       -2.52743768        1.69507235
 C            0.80933975       -3.02460533        0.58410869
 C           -1.81637774       -1.30660701        2.49519655
 C           -1.23711386       -2.20033807        1.59605785
 C           -2.00673152        1.01835241        2.44348841
 C           -2.62141177       -0.21510309        1.97442369
 C           -0.34209536        2.32973004        1.30391930
 C           -1.69191905        1.98561190        1.49919159
 C            0.03262175        3.13201156        0.22960533
 C            2.12204720        1.86295274        0.07814704
 C            1.26869444        2.82427430       -0.46391820
 C            3.44163856       -0.16672521       -0.38372898
 C            2.97846946        1.15566034       -0.76972411
 C            2.28216916       -2.22538851       -1.06572307
 C            3.00509377       -1.09350875       -1.41905162
 C            0.14157315       -3.12644438       -0.69890107
 C            0.99206848       -2.48420719       -1.69363948
 C           -1.92925581       -2.44756091        0.41140454
 C           -1.22925662       -2.95201976       -0.75868121
 C           -3.07553177       -0.27973179        0.65605000
 C           -2.92097088       -1.47963668       -0.04144251
 C           -2.59461608        2.11824816        0.45113578
 C           -3.24681116        0.91872261       -0.04785187
 C           -0.94722242        3.51691190       -0.76945032
 C           -2.28048687        2.96690132       -0.67720194
 C            0.98320378        2.81292846       -1.89578574
 C           -0.41293294        3.15497533       -2.07080945
 C            2.68125741        1.09806018       -2.18800839
 C            2.55826018       -0.30375718       -2.55108448
 C            1.50742937        1.79350322       -2.67430477
 C            0.44716552       -1.56895054       -2.60104652
 C            1.21801123       -0.50910600       -3.06961949
 C            0.60015559        0.79846862       -3.23583808
 C           -1.79646726       -2.31145979       -1.92890936
 C           -2.89938672       -1.47293816       -1.49316973
 C           -0.93184513       -1.51074728       -2.77703967
 C           -3.15665780        0.94717700       -1.50369380
 C           -2.53430273        2.20040151       -1.88718425
 C           -1.30109770        2.16393214       -2.65265336
 C           -0.77893466        0.93351450       -3.05665659
 C           -2.79854520       -0.20431900       -2.18439700
 C           -1.56894289       -0.21596598       -2.96911044
