56
Modified xyz file
C          1.10431        0.05077        4.04264
C          2.33043       -0.25873        3.36964
C          2.29400       -1.65691        2.97259
C          0.26362       -1.13198        3.97822
C          0.89676       -2.07239        3.05098
C         -1.09068       -0.69568        3.79484
C          0.29345        1.19466        3.64081
C         -1.11105        0.75235        3.78998
C          0.63044        1.87799        2.33710
C          2.74029        0.50354        2.19093
C          1.79355        1.49413        1.57600
C          3.01873       -1.79185        1.74479
C          3.38388       -0.45166        1.31828
C          2.46161       -2.48424        0.59089
C          0.18763       -2.41306        1.76008
C          0.95956       -2.72247        0.57137
C         -1.85338       -1.15273        2.64616
C         -1.17975       -1.99193        1.60225
C         -2.13551        1.21206        2.86716
C         -2.62771        0.00446        2.15394
C         -0.41724        2.53693        1.67523
C         -1.84517        2.40196        2.05550
C         -0.34601        2.92025        0.35966
C          1.77264        1.69046        0.13336
C          0.71063        2.46760       -0.45058
C          3.26939       -0.35828       -0.10450
C          2.97873       -1.72477       -0.57021
C          2.51592        0.77856       -0.73005
C          2.37385       -1.87832       -1.86659
C          0.32496       -2.78587       -0.71092
C          1.13710       -2.67705       -1.97483
C         -1.72258       -1.95580        0.30894
C         -1.03538       -2.40663       -0.79957
C         -2.98349        0.06848        0.70947
C         -2.69784       -1.03976       -0.11436
C         -2.57127        2.56545        0.79362
C         -1.69944        3.22434       -0.14902
C         -2.99076        1.33953        0.07775
C         -2.00113        2.77837       -1.49796
C         -2.71419        1.49067       -1.29442
C          0.46249        2.42876       -1.83447
C         -0.87344        2.73190       -2.44180
C          2.09546        0.63077       -2.09450
C          2.14170       -0.68477       -2.69897
C          1.14294        1.54096       -2.63825
C          0.45454       -2.10639       -3.13077
C          1.11999       -1.00062       -3.58449
C         -1.63068       -1.93237       -1.97277
C         -2.66750       -0.96989       -1.57842
C         -2.56746        0.39585       -2.18183
C         -0.89585       -1.77752       -3.14521
C         -0.97557        1.79813       -3.55309
C          0.33449        1.24464       -3.73358
C          0.24650       -0.06914       -4.06688
C         -1.78066        0.57118       -3.35315
C         -1.02581       -0.50393       -3.84099

