56
Modified xyz file
 C            1.60734762       -0.05253268        4.42880846
 C            0.76929392       -1.21605816        4.65099661
 C            1.33152608       -2.31180678        3.88372203
 C            2.58527122       -0.39026582        3.40450293
 C            2.41534533       -1.78199466        3.06871369
 C            2.46069385        0.58659370        2.34009294
 C            0.76407283        0.99924599        3.88981644
 C            1.43865784        1.53875839        2.73274374
 C           -0.54703430       -0.92373811        4.10548931
 C           -0.56836903        0.46947269        3.69077150
 C            0.30192519       -2.78604231        2.97658347
 C           -0.86206714       -1.93580965        3.11052691
 C            2.13034594       -2.11873467        1.68738030
 C            0.89850641       -2.88516275        1.66541075
 C            2.48289478        0.18321254        1.00016056
 C            2.31726963       -1.17285293        0.67298541
 C            2.10016955        1.13804003        0.05221683
 C            0.66790338        2.06190863        1.70990335
 C            1.29411485        2.19914390        0.48550791
 C           -1.21848395        0.78379824        2.50045819
 C           -0.71097105        1.81482416        1.69874007
 C           -1.50038215       -1.52418986        1.94370989
 C           -1.96968418       -0.21479514        1.88687332
 C            0.08625314       -2.70173107        0.56064670
 C           -1.19754288       -2.16969941        0.73749146
 C            1.77988254       -1.48417940       -0.58040012
 C            0.73102008       -2.41213663       -0.62699602
 C            2.09208870        0.78294364       -1.29907255
 C            1.92705073       -0.56804342       -1.62498902
 C            1.84456292        1.78226582       -2.24316775
 C            0.64347787        2.98340712       -0.44700130
 C            1.08727647        2.94008324       -1.82167142
 C           -1.44288383        2.19238716        0.56129933
 C           -0.80699362        2.95314703       -0.42976238
 C           -2.76256839        0.14158783        0.81098763
 C           -2.59289545        1.46704578        0.24317011
 C           -1.93258904       -1.81782239       -0.40616137
 C           -2.86809264       -0.78655657       -0.30051697
 C           -0.02876132       -2.52225101       -1.77525868
 C           -1.43302535       -2.17393583       -1.66669936
 C            1.51083912       -0.95038736       -2.90238398
 C            0.48804364       -1.96768089       -3.00566077
 C            1.37775792        1.44109031       -3.57209580
 C            1.20764840        0.04800855       -3.90814984
 C           -0.08859020        3.03349314       -2.66927861
 C           -1.25717970        2.89858107       -1.81607366
 C            0.09726104        2.10670551       -3.77015459
 C           -3.05983859        1.40079726       -1.13167755
 C           -3.23146738       -0.00484919       -1.47080610
 C           -2.27273404        2.02322147       -2.17652654
 C           -1.78214636       -1.40098426       -2.85337849
 C           -0.62985908       -1.39975564       -3.73881812
 C           -0.17784788       -0.14652761       -4.31375796
 C           -0.89875349        1.07649148       -4.00713617
 C           -2.55049980       -0.25174077       -2.72538795
 C           -2.04724019        1.02601027       -3.21672677
