56
Modified xyz file
 C            1.43765271        0.05875474        4.17306907
 C            0.65380383       -1.16122891        4.13886048
 C            1.40529506       -2.14279240        3.38009467
 C            2.53887838       -0.09823306        3.23589930
 C            2.51950916       -1.45588834        2.74374011
 C            2.44573318        0.97552435        2.27167089
 C            0.59675866        1.13909291        3.68527410
 C            1.33304823        1.83299285        2.65149754
 C           -0.68881679       -0.81953702        3.69608196
 C           -0.69186690        0.58878199        3.32706284
 C           -1.38217384       -1.71887986        2.89761855
 C            0.70835293       -2.89643882        2.35559483
 C           -0.68102940       -2.86752487        2.33246845
 C            2.41485427       -1.67272761        1.31081213
 C            1.43736528       -2.72336237        1.10464119
 C            2.62655805        0.71451771        0.91417170
 C            2.42852986       -0.59007825        0.42785088
 C            2.37595680        1.78531938        0.06582405
 C            0.62287005        2.43638190        1.61856714
 C            1.35884779        2.73863539        0.47812486
 C           -1.24896557        0.98502198        2.11206592
 C           -0.73463402        2.11735345        1.46746451
 C           -2.25118168       -1.19817269        1.85857147
 C           -2.06390049        0.09989330        1.39683014
 C           -1.34897338       -3.20986268        1.09314896
 C           -2.42856359       -2.25542736        0.88864395
 C            0.74595957       -2.75222200       -0.10187034
 C           -0.56829779       -3.22463028       -0.12792700
 C            1.92311686       -0.78379724       -0.86690526
 C            1.18970152       -1.94882274       -1.15308301
 C            2.20100377        1.55330035       -1.34999225
 C            2.00362753        0.25674382       -1.80290942
 C            0.67898303        3.21556891       -0.71055610
 C            1.35583280        2.62300237       -1.85785637
 C           -1.43262680        2.62301995        0.37142073
 C           -0.70548237        3.30454174       -0.68766806
 C           -2.45943500        0.42949313        0.09867672
 C           -2.41805880        1.76929818       -0.26748430
 C           -2.43506789       -1.90544533       -0.52105067
 C           -1.46031867       -2.76155517       -1.17548190
 C           -2.49585064       -0.56303710       -0.89459210
 C            0.53371105       -2.07450463       -2.37376429
 C           -0.89826258       -2.31394932       -2.35763836
 C            1.53780283        0.07737376       -3.10325652
 C            0.79389322       -1.11723955       -3.42843276
 C            0.67101339        2.42971138       -3.05229682
 C            0.88026476        1.18792519       -3.77885239
 C           -1.45397712        3.13094751       -1.91910582
 C           -2.47922567        2.12823030       -1.67095426
 C           -0.74573638        2.75105424       -3.12874675
 C           -2.19037821       -0.23632713       -2.22156290
 C           -1.49350858       -1.16097441       -3.00385646
 C           -0.49732506       -0.69621367       -3.95133646
 C           -0.41664998        0.71949880       -4.24436840
 C           -2.32091278        1.08111689       -2.65822648
 C           -1.42770461        1.59577631       -3.68597171
