56
Modified xyz file
 C            1.46791067       -0.12224593        4.03072956
 C            0.63550768       -1.29742545        3.86534037
 C            1.25021424       -2.15211141        2.85993313
 C            2.58171782       -0.24571104        3.11126105
 C            2.34582644       -1.40449775        2.26848666
 C            2.73260147        1.03405347        2.45688766
 C            0.68781182        1.02956210        3.60669646
 C            1.46032823        1.73397705        2.60952479
 C           -0.72269393       -0.83728696        3.64176499
 C           -0.63026885        0.55979364        3.24461409
 C           -1.57653109       -1.66749931        2.93088682
 C            0.41720741       -2.88792064        2.03264284
 C           -1.01226642       -2.84926884        2.29411137
 C            0.59573297       -2.79441582        0.59098304
 C            2.41676756       -1.23796171        0.88303668
 C            1.44962779       -1.82861528        0.05927891
 C            3.30764315        1.03470165        1.19846218
 C            3.17798595       -0.17920983        0.39391230
 C            2.97382027        2.14155729        0.33043070
 C            0.82406060        2.22057772        1.46635040
 C            1.64493577        2.71006741        0.45525869
 C           -1.18848328        0.95021885        2.02969513
 C           -0.46637573        1.76896971        1.13940866
 C           -2.49506909       -1.07098991        1.97533099
 C           -2.30907324        0.25557861        1.57639787
 C           -1.69574639       -3.04147296        1.03000337
 C           -0.70006692       -3.01264573       -0.02678758
 C           -2.78223721       -2.08356627        0.96876767
 C           -1.00695672       -2.33185110       -1.19619997
 C            1.19297703       -1.31385443       -1.22269316
 C            0.01245045       -1.68657979       -1.89487614
 C            3.03713485        0.22145382       -0.99211982
 C            3.11342179        1.66974177       -1.02841071
 C            2.08838379       -0.39699634       -1.80029616
 C            1.12128854        2.87105162       -0.88686990
 C            2.12665924        2.36777903       -1.82156013
 C           -1.02570725        2.09425628       -0.10785003
 C           -0.22431028        2.61075022       -1.13441522
 C           -2.97674635        0.71050735        0.44837751
 C           -2.33460836        1.70574281       -0.39160079
 C           -3.19263187       -1.65746740       -0.28367518
 C           -2.33298064       -1.95197831       -1.42174258
 C           -3.59636340       -0.27205826       -0.42319750
 C           -2.72872697        1.44061823       -1.76760438
 C           -2.63169458       -0.96737396       -2.44837068
 C           -3.34206305        0.12291843       -1.79483634
 C           -0.29746168       -1.14068326       -3.13826953
 C           -1.64643071       -0.64608688       -3.37015041
 C            1.73755528        0.26826659       -2.97621456
 C            1.67729116        1.72704192       -2.96252862
 C            0.62005045       -0.21068973       -3.75667311
 C           -0.62883908        2.47953611       -2.46534487
 C           -1.85536191        1.77315911       -2.79051966
 C           -1.51800731        0.74484801       -3.76414709
 C            0.36615314        2.09142032       -3.44924966
 C           -0.14536328        0.95031520       -4.18237013
