56
Modified xyz file
 C            1.43138165        0.05001544        3.87901358
 C            0.60621051       -1.13587232        3.74993921
 C            1.16862970       -1.96413158        2.70121650
 C            2.47393406       -0.02213760        2.86926185
 C            2.30614309       -1.24971434        2.13413156
 C            2.44574109        1.20908969        2.12588740
 C            0.59713675        1.19853534        3.56659318
 C            1.26832807        1.95487430        2.54236350
 C           -0.76546952       -0.70125705        3.61115389
 C           -0.73537214        0.72048788        3.28596023
 C           -1.63215019       -1.51592198        2.90351984
 C            0.30879520       -2.64472577        1.83824620
 C           -1.07678992       -2.53267327        2.01059566
 C            0.81049831       -3.04025250        0.59997762
 C            2.46331069       -1.24637583        0.75143048
 C            2.00067030       -2.37716588        0.08970139
 C            2.72878276        1.19053471        0.76517218
 C            2.59889383       -0.02382515        0.05144611
 C            2.46685698        2.38876662        0.11112689
 C            0.51962269        2.55620718        1.54012013
 C            1.27864751        3.12008633        0.52448458
 C           -1.40327920        1.17671510        2.14548344
 C           -0.75038858        2.02413311        1.22795222
 C           -2.72900256       -0.87804172        2.20492605
 C           -2.55244451        0.49301497        1.75688158
 C           -1.96018194       -2.63505585        0.85531213
 C           -3.04393636       -1.68848460        1.04536930
 C           -0.09501129       -3.23022468       -0.52166075
 C           -1.41247998       -2.79476894       -0.41554202
 C            1.93646828       -2.38974594       -1.34972499
 C            0.65786708       -2.96619076       -1.73527944
 C            2.51734087       -0.00802904       -1.36140722
 C            2.09259648       -1.13945839       -2.04948334
 C            2.54171632        2.44022142       -1.32430313
 C            2.41051947        1.19945350       -2.04646622
 C            0.62010370        3.60739831       -0.65897728
 C            1.50340305        3.34722837       -1.78362278
 C           -1.30627272        2.22037401       -0.05511937
 C           -0.68016364        3.06509059       -0.97484689
 C           -3.00028548        0.55917337        0.38121185
 C           -3.36989921       -0.78965771       -0.03947679
 C           -2.34108466        1.39672930       -0.50986499
 C           -2.05306534       -2.22516061       -1.52384672
 C           -3.06507916       -1.19228186       -1.33015550
 C            0.07281683       -2.11826020       -2.75411750
 C            0.99073108       -1.00996678       -2.99073950
 C           -1.29230252       -1.88367546       -2.72107399
 C            1.33729175        1.35702309       -3.02031121
 C            0.72779750        2.65486277       -2.79333622
 C           -0.65967114        2.69214682       -2.38193883
 C            0.50933011        0.26723161       -3.28731960
 C           -2.48511992        1.16471180       -1.87783110
 C           -2.84442499       -0.16640092       -2.32894141
 C           -1.79394759       -0.62219286       -3.22549062
 C           -1.47625824        1.65530990       -2.79480051
 C           -0.86748491        0.48223404       -3.41280058
