56
Modified xyz file
 C            1.09928202       -0.14898823        4.03121841
 C            2.34302537       -0.28674747        3.29950764
 C            2.24654196       -1.50780237        2.51457269
 C            0.27808275       -1.30613400        3.70585432
 C            0.87080437       -1.94705376        2.54925827
 C           -1.08850384       -0.85893453        3.61643312
 C            0.28417402        1.03707818        3.82994999
 C           -1.09428342        0.59488565        3.73211183
 C            0.73002273        2.05103640        2.98627658
 C            2.76428531        0.78015891        2.40647270
 C            2.04726477        1.96898214        2.36702480
 C            2.82859387       -1.24384367        1.22444100
 C            3.20313189        0.16081410        1.16394739
 C            2.23858396       -1.78965150        0.09938073
 C            0.16067969       -2.01766954        1.34521396
 C            0.86595958       -2.10562642        0.13646843
 C           -1.84695407       -1.18515666        2.42633780
 C           -1.22286255       -1.78893593        1.32740461
 C           -1.92689913        1.09958236        2.65214958
 C           -2.69681944       -0.03800780        2.18755868
 C           -0.18235141        2.62116743        2.00438221
 C           -1.37593271        1.96780291        1.70895112
 C            1.99264217        2.71169127        1.12293791
 C            0.61885650        3.14727480        0.91944195
 C            3.07046956        0.82935243       -0.06008982
 C            2.44063734        2.07568232       -0.10430248
 C            2.78678444       -1.36371443       -1.09540865
 C            3.07504154        0.05573951       -1.22204433
 C            2.19363006       -1.81241218       -2.32919875
 C            0.15884357       -2.28257347       -1.06222758
 C            0.87272389       -2.39121483       -2.26200052
 C           -1.90487758       -1.76486088        0.10551549
 C           -1.23222872       -2.09131252       -1.08156004
 C           -3.30205437        0.04886471        0.95288609
 C           -3.11659405       -1.06415738        0.05024062
 C           -1.84240338        1.91991782        0.38832008
 C           -3.02453372        1.22117652        0.14448780
 C            0.24349211        2.81722981       -0.44052262
 C            1.42670734        2.32972131       -1.12139645
 C           -0.96345546        2.17630045       -0.67752063
 C            2.31541662        0.51274899       -2.37096260
 C            2.10267499       -0.65473467       -3.20524341
 C            1.27836018        1.42047771       -2.16359468
 C            0.24618109       -2.02730488       -3.51460077
 C            0.85629313       -0.77120252       -3.92686403
 C           -1.91828379       -2.01808498       -2.30301512
 C           -1.18054032       -1.82505042       -3.53262379
 C           -3.61695253       -0.58069505       -1.21656782
 C           -3.37429677        0.85747585       -1.21831833
 C           -3.04450684       -1.11772601       -2.42484873
 C           -1.13482257        1.52549540       -1.90117606
 C           -0.00841489        1.12960695       -2.64417105
 C           -0.15054390        0.24730709       -3.72171073
 C           -1.40768742       -0.44103389       -3.92769152
 C           -2.41251900        1.10837159       -2.26788617
 C           -2.56986494        0.01468740       -3.20319914
