56
Modified xyz file
 C            1.50543131       -0.00504706        3.96931416
 C            0.71008159       -1.19234676        3.71228725
 C            1.54424315       -2.11853024        2.98582270
 C            2.66897982       -0.06402162        3.09965676
 C            2.73871431       -1.39917314        2.55644584
 C            2.58544476        1.05154832        2.17921247
 C            0.71770827        1.14816074        3.57049463
 C            1.49761381        1.91086983        2.62197117
 C           -0.53716291       -0.76909352        3.10679778
 C           -0.58064414        0.68274594        3.13875546
 C           -1.02013045       -1.41518169        1.96937736
 C            0.99788321       -2.76078401        1.80685811
 C           -0.30054024       -2.47126358        1.38044546
 C            2.83057999       -1.56062794        1.11737261
 C            2.05647896       -2.74918883        0.81952410
 C            2.75609156        0.85186173        0.80600434
 C            2.70141198       -0.44992238        0.27610491
 C            2.45433179        1.93432001       -0.01851636
 C            0.82485164        2.63569942        1.64720599
 C            1.56025652        2.94986198        0.50965607
 C           -1.18160812        1.33692186        2.07124865
 C           -0.56493790        2.47367020        1.52794908
 C           -2.00632925       -0.76525612        1.22758356
 C           -2.10509977        0.62890921        1.30197302
 C           -2.63240551       -1.45869435        0.19700912
 C           -0.67517071       -2.92258050        0.10938885
 C           -1.94455741       -2.60147232       -0.37375698
 C            1.70220363       -2.98073269       -0.49424996
 C            0.32700800       -3.35080201       -0.77083420
 C            2.25621543       -0.65882205       -1.03773069
 C            2.03332001       -1.96424276       -1.47575404
 C            2.05215494        1.69737491       -1.39130107
 C            1.72911502        0.40500662       -1.77142917
 C            0.90804552        3.59531944       -0.60960097
 C            1.17913086        2.78931333       -1.79074594
 C           -1.25619996        3.21275961        0.56641449
 C           -0.52144734        3.81023528       -0.53636215
 C           -2.88143832        1.32126216        0.37979204
 C           -2.48603977        2.67091097        0.01289798
 C           -3.27880963       -0.72994263       -0.88588554
 C           -3.29640977        0.65588493       -0.84012574
 C           -2.21359059       -2.60898630       -1.80393319
 C           -2.87638246       -1.36070985       -2.13192924
 C            0.17047292       -3.17940567       -2.20447817
 C            1.15833358       -2.19136854       -2.61426105
 C           -1.11270170       -2.76891819       -2.73006344
 C            0.64124999        0.19479590       -2.62567372
 C           -2.00573307       -0.61607302       -3.02822355
 C            0.43853717       -1.06477594       -3.17248175
 C           -0.92173879       -1.49895271       -3.41625887
 C           -0.09491573        2.47185090       -2.40937869
 C           -1.09785286        3.30497758       -1.77000926
 C           -2.37592982        2.71366809       -1.43934228
 C           -2.66392909        1.38022589       -1.92777176
 C           -0.38915504        1.13822376       -2.68738654
 C           -1.72502937        0.71053779       -2.71007965
