56
Modified xyz file
 C            1.52545459       -0.22692546        4.15383584
 C            0.66933594       -1.39576810        4.15172587
 C            1.14688424       -2.28258431        3.10716690
 C            2.46938004       -0.36592345        3.05587106
 C            2.14991960       -1.57834092        2.33830871
 C            2.45606633        0.87484818        2.32043574
 C            0.69249606        0.92266041        3.85344372
 C            1.41244620        1.71968622        2.88745016
 C           -0.66638647       -0.96710349        3.76707368
 C           -0.61647618        0.44460892        3.46457782
 C           -0.01737870       -2.75112452        2.39183662
 C           -1.12117526       -1.86177906        2.73109582
 C            0.11991351       -3.07393857        1.04937240
 C            1.97711458       -1.52567501        0.95739902
 C            1.21215701       -2.52726561        0.35198628
 C            2.56942658        0.84531680        0.93211901
 C            2.24893890       -0.34073853        0.24622602
 C            2.35858608        2.06339613        0.29515078
 C            0.68219195        2.48090656        1.98602786
 C            1.42089347        2.97833692        0.92199681
 C           -1.12906683        0.89869360        2.25188504
 C           -0.65598352        2.11608230        1.75285084
 C           -1.87969159       -1.35524208        1.67790540
 C           -1.81616573        0.02083575        1.39109182
 C           -1.07957932       -3.23072627        0.36971284
 C           -2.11281741       -2.24514169        0.63501023
 C           -1.05870483       -3.50008383       -1.04889244
 C            1.27772951       -2.64884901       -1.03314840
 C            0.18601904       -3.28720565       -1.75062371
 C            2.01047019       -0.30770478       -1.13888297
 C            1.70612895       -1.49568403       -1.80596743
 C            2.10866439        2.09943197       -1.12841212
 C            1.85145801        0.91472716       -1.80332288
 C            0.75110361        3.72748669       -0.11508992
 C            1.26515576        3.25613207       -1.38983264
 C           -1.36265119        2.71164116        0.71187232
 C           -0.69128656        3.66076733       -0.16136535
 C           -2.27153438        0.50077398        0.15062437
 C           -2.21309474        1.87051281       -0.11262040
 C           -2.57674279       -1.75335466       -0.64296627
 C           -2.07207121       -2.65956274       -1.66370278
 C           -2.56348229       -0.38828763       -0.89119179
 C           -0.10412870       -2.49144355       -2.92882308
 C            0.91698483       -1.46020117       -3.02957040
 C           -1.50662611       -2.09793499       -2.87570792
 C            1.12447181        0.97684018       -2.99350720
 C            0.56783986       -0.23252678       -3.57124423
 C            0.14052929        3.10794135       -2.29390965
 C           -1.07385064        3.36237042       -1.52891407
 C           -2.11040220        2.34253858       -1.48660755
 C            0.15050303        2.04476829       -3.18561832
 C           -2.50167115        0.04135980       -2.21802910
 C           -1.84160881       -0.79447148       -3.21387104
 C           -0.83453237        0.02866326       -3.85688885
 C           -2.17808164        1.42301878       -2.52217013
 C           -1.11307273        1.41124176       -3.51317231
