56
Modified xyz file
 C            1.16724462        0.06332343        4.02779907
 C            2.38531892       -0.05226765        3.25279378
 C            2.42687715       -1.39969351        2.71559908
 C            0.35166718       -1.11145462        3.74254535
 C            1.08017005       -1.93771945        2.80490508
 C           -0.97134306       -0.65292934        3.37922923
 C            0.33520316        1.23164681        3.82672814
 C           -1.03192652        0.76642887        3.68389725
 C            0.60336610        2.10141847        2.69436347
 C            2.59845652        0.85196391        2.13583447
 C            1.60283982        1.76501674        1.77697545
 C            3.05525166       -1.32976686        1.40693801
 C            3.26673364        0.08041175        1.10267303
 C            2.57966536       -2.17275588        0.41053285
 C            0.45738173       -2.36404363        1.63488849
 C            1.27298816       -2.78852958        0.58589302
 C           -1.55571612       -1.10331802        2.19846061
 C           -0.87943436       -2.02103552        1.37977298
 C           -2.61027477       -0.35658580        1.67302219
 C           -1.69684143        1.64629632        2.73729501
 C           -0.68772834        2.55694426        2.20972699
 C           -2.62299453        1.08547628        1.86703201
 C           -0.78738570        3.00464134        0.90019780
 C            1.49116018        2.18193942        0.44536969
 C            0.37276530        2.90167432        0.03100541
 C            3.18534993        0.51666848       -0.21197157
 C            2.34904775        1.66399590       -0.52225749
 C            2.68320654       -1.76600910       -0.98029964
 C            3.01765310       -0.45113902       -1.28530578
 C            0.71025596       -3.02109177       -0.73183445
 C            1.61006163       -2.42534429       -1.70993654
 C           -1.48438297       -2.45946852        0.19966550
 C           -0.66248505       -2.92711201       -0.90484991
 C           -3.10747820       -0.63019348        0.33694985
 C           -2.59911448       -1.71428881       -0.36268878
 C           -2.84337367        1.69508633        0.56687926
 C           -1.95998231        2.66617399        0.10819600
 C           -3.29640160        0.64739083       -0.33635724
 C           -0.10708679        2.75799333       -1.33623570
 C           -1.56115647        2.67121026       -1.28976079
 C            1.87885672        1.51426956       -1.89220681
 C            2.34610549        0.22423068       -2.38361279
 C            0.60999512        1.97671101       -2.24308144
 C            1.09199951       -1.83444501       -2.85750223
 C            1.54223965       -0.50628970       -3.24896953
 C           -1.20071273       -2.37289003       -2.13788924
 C           -2.40275899       -1.62009947       -1.80137502
 C           -0.33450814       -1.91637876       -3.12817998
 C           -3.04352610        0.75548416       -1.69974343
 C           -2.22344090        1.85202569       -2.19475267
 C           -2.70281252       -0.43319266       -2.46515941
 C           -0.04579506        1.42083253       -3.34205310
 C            0.42968640        0.16458394       -3.89497010
 C           -0.69434782       -0.75838017       -3.92687369
 C           -1.49746996        1.37149960       -3.35545876
 C           -1.89106875       -0.00891554       -3.59184298
