56
Modified xyz file
 C            1.54019952        0.10775566        4.18172613
 C            0.68545459       -1.06417218        4.10923842
 C            1.35506382       -2.04567732        3.27826620
 C            2.60054646       -0.05711262        3.20079436
 C            2.53406206       -1.41229859        2.70553244
 C            2.49640653        1.03230831        2.24679612
 C            0.74991905        1.25763563        3.78115497
 C            1.47371484        1.94639982        2.73108392
 C           -0.64783472       -0.62695396        3.73324674
 C           -0.60295895        0.80778470        3.49900692
 C           -1.40204082       -1.41746154        2.87766128
 C            0.61285358       -2.66556226        2.19220356
 C           -0.75951995       -2.48233689        2.11035119
 C            2.48670001       -1.61642629        1.27314679
 C            1.40729805       -2.53615324        0.98455652
 C            2.57093467        0.77560214        0.87559163
 C            2.66808841       -0.54642299        0.40177792
 C            2.16813579        1.78839752       -0.00243469
 C            0.73349597        2.65405074        1.79654293
 C            1.19781285        2.69440910        0.42059077
 C           -1.26836756        1.34508848        2.39552621
 C           -0.70645412        2.44767743        1.74637096
 C           -2.35802440       -0.77460405        1.99602196
 C           -2.26051081        0.59642413        1.75244180
 C           -1.39350102       -2.52017670        0.80314624
 C           -2.57599205       -1.68580067        0.88413279
 C            0.78223943       -2.41157735       -0.25250883
 C           -0.61447177       -2.47673847       -0.35252919
 C            2.41664806       -0.78731364       -0.94832319
 C            1.49801526       -1.79826949       -1.27805390
 C            2.32472035        1.59457817       -1.36992498
 C            2.64200101        0.26240908       -1.82961170
 C            1.29187744        2.09383959       -2.26239960
 C            0.03748028        2.93062587       -0.42739744
 C           -1.14576349        2.80492896        0.40756549
 C            0.04619058        2.42009120       -1.72498234
 C           -2.90272372        1.12355891        0.63274778
 C           -2.27583549        2.20417664       -0.11120309
 C           -3.12065921       -1.18993947       -0.28892157
 C           -3.49362751        0.21249757       -0.33377113
 C           -1.22777339       -2.14228016       -1.56642432
 C           -2.47929490       -1.51213515       -1.55556593
 C            0.98979489       -1.90353601       -2.56765947
 C           -0.44469799       -2.06616854       -2.71877437
 C            2.20838826        0.16256147       -3.20987780
 C            1.38947184        1.33403202       -3.49230780
 C            1.45761123       -1.00545155       -3.60595800
 C           -0.87249435       -1.18899000       -3.79387697
 C            0.17189553        0.88324609       -4.12353000
 C            0.30232954       -0.54636924       -4.35544711
 C           -1.13241019        1.88572307       -2.27719628
 C           -2.30416574        1.85352341       -1.51960733
 C           -3.19117799        0.71336672       -1.66327766
 C           -2.74326174       -0.40550518       -2.46940720
 C           -1.08628267        1.10325603       -3.43683932
 C           -1.82950536       -0.15051493       -3.47941084
