56
Modified xyz file
 C            1.49588436       -0.03300364        3.99241099
 C            0.67860834       -1.22662110        3.89277515
 C            1.34274358       -2.15542996        2.99205383
 C            2.59703127       -0.17041239        3.05421791
 C            2.51122545       -1.48077310        2.44223914
 C            2.59137683        0.99774416        2.19503252
 C            0.68421079        1.09263335        3.55934513
 C            1.41358057        1.78728651        2.52801878
 C           -0.67980414       -0.80901581        3.59025664
 C           -0.63635796        0.60324555        3.23733163
 C           -1.47990682       -1.65916803        2.84002912
 C            0.55914156       -2.96397731        2.17441599
 C           -0.88837988       -2.85986090        2.26657495
 C            0.89896190       -3.12349291        0.76762100
 C            2.80612140       -1.59956560        1.09016730
 C            2.02232977       -2.49371181        0.25178128
 C            2.93742379        0.86858514        0.84876672
 C            3.11839764       -0.40697117        0.30651483
 C            2.58781431        1.91661925        0.00002326
 C            0.71629773        2.36926277        1.47960025
 C            1.49874586        2.78445574        0.41338867
 C           -1.24646290        1.02711462        2.05733638
 C           -0.61587474        1.98235743        1.23408809
 C           -2.36489523       -1.08975665        1.83963184
 C           -2.31517875        0.27649293        1.56225602
 C           -1.43613357       -3.03904415        0.93195490
 C           -0.33550471       -3.10881846       -0.00332736
 C           -2.43891456       -2.01808884        0.72172099
 C           -0.40933997       -2.34976426       -1.16884896
 C            1.95853140       -1.91217930       -1.07663640
 C            2.72260763       -0.67515545       -1.06986774
 C            0.77544921       -1.95838521       -1.80581132
 C            2.42327138        1.67752665       -1.42546875
 C            2.31345396        0.37020313       -1.89448548
 C            0.86280271        3.30295566       -0.77123703
 C            1.52083269        2.70367377       -1.92235569
 C           -1.26881137        2.42631310        0.07109363
 C           -0.55887048        3.10231659       -0.92338993
 C           -2.98399920        0.71702316        0.42833866
 C           -2.52359646        1.91435930       -0.24307227
 C           -2.59384204       -1.47607516       -0.54754445
 C           -1.63432590       -1.76496564       -1.53164456
 C           -3.26877531       -0.26188227       -0.60493407
 C           -1.77076243       -1.21105705       -2.80542551
 C            0.70986897       -1.16776956       -2.94531795
 C            1.45881926        0.08023860       -2.96326671
 C           -0.57412359       -0.93392466       -3.57210200
 C            0.49182425        2.33738531       -2.87508297
 C           -0.78594949        2.77271113       -2.32178377
 C            0.58655606        1.10885889       -3.51402757
 C           -0.62109217        0.45881006       -3.99104959
 C           -2.92315593        1.80295759       -1.64087852
 C           -3.38245435        0.44045226       -1.86428342
 C           -2.67534921       -0.09137404       -3.00853695
 C           -1.96123741        2.12326116       -2.68036270
 C           -1.91081412        0.99540061       -3.59824391
