56
Modified xyz file
 C            1.53405266       -0.18809164        4.09458935
 C            0.67621639       -1.35519014        4.20110577
 C            1.11832287       -2.32385901        3.21510979
 C            2.49416287       -0.43633179        3.03494613
 C            2.23113482       -1.74766360        2.47718604
 C            2.46113102        0.69877798        2.13527262
 C            0.71258093        0.93401593        3.67554211
 C            1.34380182        1.54509992        2.51791766
 C           -0.66976374       -0.95343099        3.83436268
 C           -0.65244174        0.46712203        3.53479248
 C           -0.04884749       -2.76120238        2.47041983
 C           -1.14597496       -1.86258971        2.80343655
 C            0.12928597       -3.12712724        1.14531817
 C            2.25523914       -1.88743136        1.09196805
 C            1.39300492       -2.81011400        0.49759160
 C            2.65345484        0.47358033        0.78201242
 C            2.76207371       -0.84232070        0.31436908
 C            2.22180671        1.45897432       -0.09812103
 C            0.52610191        2.05045742        1.50620205
 C            1.05361002        2.16920444        0.21371964
 C           -1.37325916        0.90314949        2.43275542
 C           -0.85720833        1.94631888        1.66256127
 C           -1.93043495       -1.33833418        1.77650630
 C           -2.26745834        0.01785360        1.83470971
 C           -0.92311682       -2.83963937        0.18679568
 C           -1.97608396       -2.00364423        0.54529825
 C            1.13989479       -2.73757373       -0.93308775
 C           -0.30108493       -2.66398460       -1.11777757
 C            2.89556075       -1.04808595       -1.05770390
 C            1.95912695       -1.94467395       -1.71816576
 C            2.69063397        1.40475047       -1.40290039
 C            3.07005830        0.10743651       -1.92348062
 C            1.97582152        2.10266887       -2.44788611
 C            0.25456333        2.71028053       -0.80483479
 C            0.71171358        2.72765990       -2.12240844
 C           -1.68203011        2.51445269        0.70138979
 C           -1.10859528        2.90238614       -0.57504390
 C           -3.17770591        0.53099666        0.92001017
 C           -2.96628942        1.88535820        0.43879411
 C           -2.75892732       -1.47860821       -0.47855365
 C           -3.54397632       -0.28892822       -0.21652887
 C           -0.84960688       -1.73826976       -2.00618419
 C           -2.17359229       -1.34266703       -1.80605372
 C            1.36898119       -1.21134032       -2.82247260
 C            2.28237414       -0.12170428       -3.12162489
 C            1.73982953        1.15691133       -3.53213599
 C           -0.01101718       -0.98956941       -2.84323898
 C           -0.21435126        2.38293042       -3.18649599
 C            0.33402831        1.22717853       -3.87197607
 C           -0.52585879        0.10089830       -3.55013819
 C           -2.06512262        2.55948541       -1.62098908
 C           -3.19336229        1.89708917       -0.99569291
 C           -3.51501135        0.54468162       -1.40709757
 C           -2.66675646       -0.10630036       -2.39169200
 C           -1.58321734        2.06666454       -2.82661172
 C           -1.80747173        0.66229252       -3.16578604
