56
Modified xyz file
 C            1.53861443        0.00000000        4.00885673
 C            0.77938648       -1.16852738        3.60333436
 C            1.57074561       -1.91252792        2.64165196
 C            2.78731190        0.00000000        3.26637170
 C            2.79361482       -1.16853046        2.40565410
 C            2.79361482        1.16853046        2.40565410
 C            0.77938648        1.16852738        3.60333436
 C            1.57074561        1.91252792        2.64165196
 C           -0.54407887       -0.72694996        3.19678804
 C           -0.54407887        0.72694996        3.19678804
 C           -1.15717073       -1.38387722        2.13500548
 C            0.91506860       -2.44163620        1.53896660
 C           -0.47868680       -2.44928430        1.53507437
 C            1.57726904       -2.44926097        0.31256812
 C            3.06848390       -0.72695041        1.04871484
 C            3.06848390        0.72695041        1.04871484
 C            2.42837890       -1.38385263        0.00298698
 C            2.42837890        1.38385263        0.00298698
 C            0.91506860        2.44163620        1.53896660
 C            1.57726904        2.44926097        0.31256812
 C           -1.15717073        1.38387722        2.13500548
 C           -0.47868680        2.44928430        1.53507437
 C           -2.12959628       -0.69989575        1.40176789
 C           -2.12959628        0.69989575        1.40176789
 C           -2.83447425       -1.38578356        0.41392720
 C           -1.12325661       -3.19566772        0.55463335
 C           -2.38385708       -2.71103828        0.02515466
 C            1.02375116       -3.19566347       -0.72198874
 C           -0.33546477       -3.68855410       -0.56419662
 C            1.16062117       -2.71104785       -2.08241570
 C            2.24859722       -0.69989267       -1.20155964
 C            2.24859722        0.69989267       -1.20155964
 C            1.71738939       -1.38578398       -2.29265446
 C            1.71738939        1.38578398       -2.29265446
 C            1.02375116        3.19566347       -0.72198874
 C            1.16062117        2.71104785       -2.08241570
 C           -1.12325661        3.19566772        0.55463335
 C           -0.33546477        3.68855410       -0.56419662
 C           -2.83447425        1.38578356        0.41392720
 C           -2.38385708        2.71103828        0.02515466
 C           -3.20673186       -0.69107659       -0.80644536
 C           -3.20673186        0.69107659       -0.80644536
 C           -2.29693859       -2.73578898       -1.42766261
 C           -1.06428413       -3.40296371       -1.78991069
 C           -0.15731821       -2.73578728       -2.69989136
 C           -2.53819745       -1.38042024       -1.89429409
 C            0.82297540       -0.69108257       -3.20256616
 C            0.82297540        0.69108257       -3.20256616
 C           -0.45208018       -1.38042023       -3.13471824
 C           -1.56710903       -0.69965948       -2.63553850
 C           -0.15731821        2.73578728       -2.69989136
 C           -1.06428413        3.40296371       -1.78991069
 C           -2.29693859        2.73578898       -1.42766261
 C           -2.53819745        1.38042024       -1.89429409
 C           -0.45208018        1.38042023       -3.13471824
 C           -1.56710903        0.69965948       -2.63553850
