56
Modified xyz file
 C            1.36189366       -0.12727353        3.61465511
 C            2.50926446       -0.47685314        2.81524093
 C            2.31170066       -1.82519743        2.30595466
 C            0.48728290       -1.28734824        3.67803824
 C            1.08493082       -2.34804504        2.87941432
 C           -0.86913660       -0.84758162        3.37852266
 C            0.56550640        1.01027534        3.20185736
 C           -0.80946899        0.56324349        3.03771322
 C            1.06822658        1.92881422        2.28072941
 C            2.83539039        0.37225919        1.68985850
 C            2.23881758        1.62511187        1.55224687
 C            2.44646666       -1.78079795        0.85839775
 C            2.94644334       -0.46780086        0.50766428
 C            1.46371929       -2.36215223        0.06850336
 C            0.25867832       -3.12774296        2.08093192
 C            0.55420275       -3.24250843        0.65889930
 C           -1.70202566       -1.68365545        2.64989244
 C           -1.17960540       -2.96415807        2.20430837
 C           -2.47954758       -1.12424090        1.55508578
 C           -1.54612077        1.06196920        1.96282971
 C           -2.21021882        0.17155481        1.11050551
 C            0.13417185        2.81900423        1.75195953
 C           -1.21288259        2.33077113        1.50155859
 C            0.49787896        3.70848140        0.67009775
 C            2.50014548        2.28424133        0.35135381
 C            1.73375119        3.45399782       -0.02672646
 C            2.61524926        0.08699042       -0.72365648
 C            2.70560001        1.47445175       -0.84000747
 C            1.19880753       -1.83401981       -1.19755187
 C            1.78776674       -0.62543897       -1.60002354
 C            0.20892858       -2.42299484       -1.98476386
 C           -0.69355878       -3.55718686       -0.01751802
 C           -1.77219554       -3.26205520        0.91345233
 C           -2.70136413       -2.19066781        0.59177758
 C           -0.85015730       -3.18506525       -1.34395654
 C           -2.88709696       -1.86263888       -0.74158608
 C           -2.11006696       -2.57848096       -1.74141170
 C           -2.43364326        0.50683433       -0.23381104
 C           -2.89325539       -0.46180610       -1.12652317
 C           -1.57303490        2.71941046        0.15389141
 C           -0.58341158        3.68252278       -0.30283569
 C           -2.03270903        1.75061132       -0.72805875
 C            1.43756573        3.35588786       -1.44707136
 C            2.09017578        2.15979295       -1.96324029
 C            0.00073083        3.51477832       -1.62111265
 C            1.40162049       -0.03411671       -2.80437046
 C            1.45038531        1.41326053       -2.94148396
 C           -0.39932506       -1.66913835       -3.06748817
 C           -1.83443664       -1.66049018       -2.83037852
 C           -2.48332344       -0.39727994       -2.51965405
 C            0.20311858       -0.49407549       -3.48731165
 C           -1.79292407        1.91133935       -2.09461662
 C           -0.65356669        2.70342103       -2.53861935
 C            0.14466791        1.85198661       -3.40380205
 C           -1.90008569        0.76992217       -2.98859845
 C           -0.63992624        0.66987725       -3.70916244
