56
Modified xyz file
 C            1.02918033        0.08595263        3.90721482
 C            2.22401099       -0.21448623        3.15173501
 C            2.16720805       -1.62261756        2.80557308
 C            0.18922568       -1.10573582        3.90234839
 C            0.79276122       -2.05038557        2.98580203
 C           -1.17223218       -0.68475479        3.66617499
 C            0.20192995        1.19329773        3.47938954
 C           -1.17762212        0.76642126        3.61724992
 C            0.54667411        1.93840970        2.35222390
 C            2.47293867        0.51752244        1.92516295
 C            1.57521978        1.49346278        1.50020301
 C            2.75687519       -1.77476144        1.49199613
 C            2.97646498       -0.43482407        0.95237005
 C            2.21894424       -2.74094240        0.65640123
 C            0.08674033       -2.50913079        1.86923017
 C            0.82182476       -3.11611878        0.84588592
 C           -1.84626963       -1.15538240        2.47542283
 C           -1.23140939       -2.07837190        1.62836579
 C           -2.12312719        1.17651147        2.59243567
 C           -2.55079904       -0.02330168        1.88849541
 C           -0.44108166        2.77497381        1.83964878
 C           -1.82014725        2.30486387        1.84894482
 C           -0.21740586        3.44713754        0.57763638
 C            1.57519861        1.85202889        0.14705177
 C            0.84817542        2.96388150       -0.26894998
 C            2.74941800       -0.19950294       -0.40389876
 C            2.15672413        1.00330814       -0.80536463
 C            2.44613216       -2.60362789       -0.76585358
 C            2.75310106       -1.28383816       -1.28254319
 C            0.23194809       -3.31873417       -0.46657024
 C            1.25992126       -3.07672684       -1.45937473
 C           -1.81079147       -2.26767279        0.37533485
 C           -1.05273792       -2.86619093       -0.70830748
 C           -2.73620268        0.00402654        0.50495688
 C           -2.62820864       -1.20224242       -0.18607689
 C           -2.29726219        2.38570704        0.48407507
 C           -1.45113923        3.35584081       -0.18660418
 C           -2.65841581        1.21932500       -0.19169286
 C            0.36206799        3.03007811       -1.63396592
 C           -1.09441293        3.12000730       -1.57134898
 C            1.93349558        1.22870944       -2.16722495
 C            0.96434101        2.22748765       -2.59290682
 C            2.07313608       -1.17186592       -2.55862853
 C            0.99089506       -2.14751013       -2.54322290
 C            1.81940179        0.09132920       -3.06626577
 C           -1.34577811       -2.11929757       -1.92663527
 C           -2.44376466       -1.20968247       -1.62537074
 C           -0.31447158       -1.71838254       -2.78291777
 C           -2.65508724        1.22722514       -1.58980989
 C           -1.86744734        2.22670664       -2.30238868
 C           -2.55992640       -0.02222990       -2.32667348
 C            0.15016697        1.63755729       -3.64318766
 C            0.61388271        0.27767043       -3.85206254
 C           -0.50503653       -0.61998441       -3.61992672
 C           -1.28959883        1.59225874       -3.47146024
 C           -1.69762833        0.19660141       -3.47209601
