56
Modified xyz file
 C            1.28157331        0.10221472        3.90660814
 C            2.47557824       -0.11239888        3.11854429
 C            2.44312708       -1.47736445        2.61364806
 C            0.44541575       -1.08272761        3.78067715
 C            1.15065614       -2.04582103        2.95033934
 C           -0.88541872       -0.64732343        3.38363190
 C            0.45779551        1.25515044        3.60813255
 C           -0.91497338        0.79228744        3.49868837
 C            0.74348841        2.04869104        2.42126974
 C            2.73950348        0.75311152        1.98153289
 C            1.78908792        1.69605737        1.57370902
 C            2.85764489       -1.43130307        1.21864504
 C            3.36367449       -0.09106695        0.98100617
 C            2.06688497       -2.03980800        0.24312757
 C            0.44272491       -2.72690591        1.97034814
 C            1.01406908       -2.86710844        0.63891635
 C           -1.49310724       -1.24046469        2.28032287
 C           -0.96969302       -2.43779449        1.79093972
 C           -2.39438382       -0.50674148        1.49454836
 C           -1.53983157        1.54156382        2.43379318
 C           -0.53185140        2.40957275        1.84046938
 C           -2.42434439        0.89911196        1.57726184
 C           -0.61381475        2.67032997        0.47553291
 C            1.73544508        2.06791873        0.22660722
 C            0.53561314        2.56498415       -0.31955859
 C            3.41008908        0.37142909       -0.31938085
 C            2.77171919        1.63917254       -0.60765365
 C            2.14598068       -1.58622429       -1.07944707
 C            2.99633908       -0.52317723       -1.38361070
 C            1.20021471       -1.99720031       -2.02116115
 C           -0.08995707       -3.12516678       -0.27115504
 C           -1.32966175       -2.89467019        0.45982836
 C            0.01765221       -2.72570727       -1.59475753
 C           -3.05296578       -1.16653466        0.45224324
 C           -2.41077613       -2.30585065       -0.17887182
 C           -3.70746332       -0.41083664       -0.59900499
 C           -2.83515546        1.64640101        0.47844822
 C           -1.87359965        2.55753639       -0.11930238
 C           -3.59730692        1.02855348       -0.58408422
 C           -2.00159895        2.45427320       -1.56452287
 C           -3.01284819        1.44869558       -1.84718729
 C            0.41207903        2.76443856       -1.69731203
 C           -0.85400369        2.47098226       -2.33907381
 C            2.62835273        1.69227647       -2.04756426
 C            2.71071582        0.32103456       -2.53330220
 C            1.44050823        2.29149263       -2.60246305
 C            0.79607125       -1.09631159       -3.09226033
 C           -0.60971350        1.36328233       -3.25133759
 C            1.52628137        0.05949676       -3.32950028
 C            0.82230170        1.31718873       -3.49037193
 C           -1.13381435       -2.15085393       -2.27553395
 C           -2.34646155       -2.03716903       -1.60752915
 C           -3.18692241       -0.88520096       -1.87306248
 C           -2.62174187        0.25437628       -2.57546843
 C           -0.65991124       -1.04882177       -3.10286861
 C           -1.32926739        0.17892991       -3.09147378
