56
Modified xyz file
 C            1.38038836        0.06978710        4.16189737
 C            0.57471660       -1.13324320        4.05759410
 C            1.34628091       -2.11908724        3.32557299
 C            2.54891795       -0.10478839        3.31420249
 C            2.56425151       -1.47309121        2.85761359
 C            2.53562281        0.94802518        2.31787368
 C            0.60241460        1.17052106        3.62035400
 C            1.39494443        1.81118358        2.59347293
 C           -0.73094669       -0.75424304        3.54772812
 C           -0.70254574        0.66835796        3.24481025
 C           -1.38186323       -1.60438649        2.66588211
 C            0.72982327       -2.78709633        2.18990180
 C           -0.63269453       -2.65351219        1.97656160
 C            2.67021594       -1.71521137        1.43436180
 C            1.62985122       -2.65901875        1.05902320
 C            2.84599313        0.66478186        0.98430381
 C            2.96430418       -0.67156059        0.55527166
 C            2.56352339        1.66892034        0.05721184
 C            0.73804998        2.38104309        1.50929806
 C            1.49748972        2.60617921        0.36697269
 C           -1.25885964        1.12139613        2.04947766
 C           -0.64145566        2.17851862        1.37076383
 C           -2.29066319       -1.02949322        1.69293886
 C           -2.19846987        0.32673587        1.38161703
 C           -1.13529240       -2.71798285        0.61575526
 C           -2.38817418       -1.98766835        0.61142124
 C            1.13107639       -2.59611102       -0.24230657
 C           -0.25853028       -2.56824765       -0.46181404
 C            2.87049084       -0.97488671       -0.80280551
 C            1.98696724       -2.06068619       -1.19867072
 C            2.49517799        1.37229602       -1.36170921
 C            2.73396061        0.08019490       -1.78962219
 C            0.83846928        2.97245807       -0.87165449
 C            1.38893295        2.13540092       -1.92976328
 C           -1.30158562        2.74774869        0.28587762
 C           -0.52334114        3.22637226       -0.84813277
 C           -2.75440333        0.77751890        0.18116028
 C           -2.47511351        2.07686222       -0.24345691
 C           -2.88730408       -1.54827841       -0.59829061
 C           -3.29381917       -0.15926917       -0.70805002
 C           -0.78344024       -2.17424470       -1.70492173
 C           -2.13710994       -1.84716503       -1.80420979
 C            1.49298515       -1.77612843       -2.52447395
 C            1.96453878       -0.45042149       -2.89945279
 C            0.06601426       -1.81598858       -2.75042795
 C            0.53638839        1.55959445       -2.87694402
 C            0.82021897        0.29563270       -3.39366833
 C           -0.25924028       -0.66235150       -3.57480091
 C           -1.29250147        2.97772213       -2.05186538
 C           -2.57831449        2.43569694       -1.64927650
 C           -0.73885686        2.09276938       -3.06186654
 C           -3.36532867        0.12548927       -2.13160103
 C           -2.56940316       -0.88712926       -2.81059335
 C           -1.56928631       -0.20577540       -3.61359125
 C           -2.94826124        1.42300405       -2.61657357
 C           -1.81520396        1.22285587       -3.50837648
