56
Modified xyz file
 C            1.49298252        0.17188595        4.02968412
 C            0.68696586       -1.03356376        4.09088778
 C            1.44184528       -2.09493648        3.45296398
 C            2.59579809       -0.07991221        3.11457954
 C            2.62254391       -1.49593948        2.84269303
 C            2.46528716        0.83661380        1.99671171
 C            0.67361658        1.22085734        3.45092780
 C            1.38267826        1.75061556        2.31044929
 C           -0.63728017       -0.71237738        3.58686336
 C           -0.65762686        0.69799213        3.22456555
 C           -1.29309979       -1.62231106        2.76812108
 C            0.79233131       -2.91368389        2.44133392
 C           -0.56553573       -2.74653827        2.18554045
 C            2.66183384       -1.92782680        1.46211116
 C            1.71686896       -3.02393587        1.32730219
 C            2.57887842        0.37581485        0.67772077
 C            2.76803170       -0.99544061        0.42671905
 C            2.10565720        1.21638433       -0.34587465
 C            0.64226749        2.22394175        1.24528812
 C            1.28252564        2.29250986        0.02332054
 C           -1.33176243        1.09353160        2.06817051
 C           -0.74751892        2.06596198        1.24099281
 C           -2.20890029       -1.12010990        1.76109037
 C           -2.31428531        0.25166198        1.54222228
 C           -1.07497969       -2.96025593        0.83772266
 C           -2.13637735       -1.99775933        0.60520631
 C            1.23396464       -3.32515966        0.06034042
 C           -0.20067402       -3.26564713       -0.19557813
 C            2.62973371       -1.47751950       -0.87031446
 C            1.89980017       -2.71895511       -1.07701074
 C            2.14981011        0.78614607       -1.68263242
 C            2.25752489       -0.57503035       -1.93807034
 C            1.52792622        1.55062221       -2.66996302
 C            0.68374142        3.08403252       -0.93929495
 C            1.01381018        2.85336182       -2.32170716
 C           -1.45569505        2.53908272        0.12860117
 C           -0.75505236        3.26481997       -0.84472331
 C           -2.99704462        0.65805033        0.40219989
 C           -2.67819966        1.94285144       -0.18699318
 C           -2.31415099       -1.42982515       -0.65308862
 C           -3.10726904       -0.28963405       -0.69775944
 C           -0.40283628       -2.64607315       -1.49660009
 C            0.89903433       -2.48112927       -2.10091233
 C            1.20033445       -1.20872812       -2.71369291
 C           -1.33322201       -1.61747445       -1.63963194
 C            0.51564940        0.89679134       -3.48456501
 C            0.15543640       -0.40155750       -3.14094965
 C           -1.13637694       -0.64490903       -2.63795302
 C           -0.17903418        3.09978781       -3.11551061
 C           -1.27109636        3.38239198       -2.19993755
 C           -0.50546435        1.86821088       -3.81359820
 C           -3.13796781        1.87504940       -1.56677442
 C           -3.19024856        0.46737497       -1.92691788
 C           -2.17520057        0.24235495       -2.93123998
 C           -2.38878125        2.55658011       -2.59952966
 C           -1.88119757        1.54095381       -3.51350620
