56
Modified xyz file
 C            0.80615913        0.04349583        4.93503496
 C            0.12355644       -1.17418851        4.52748383
 C            1.01757384       -1.91744660        3.66699138
 C            2.05867123        0.11902241        4.19997703
 C            2.21759836       -1.11613910        3.46311901
 C            2.06834081        1.36556319        3.46637209
 C           -0.01661759        1.17201007        4.52968375
 C            0.78176604        2.01898406        3.66998798
 C           -1.17825690       -0.80458347        4.01507816
 C           -1.26443560        0.65014977        4.01710830
 C           -1.58384598       -1.25854567        2.69157961
 C            0.55746497       -2.34020321        2.35332215
 C           -0.73611551       -2.04343699        1.90710033
 C            2.46580844       -1.06896502        2.02839563
 C            1.66425366       -2.12134685        1.44179837
 C            2.31751463        1.34918740        2.03327034
 C            2.55109024        0.14911175        1.35079768
 C            0.27392626        2.38987315        2.35591797
 C            1.39625729        2.30352829        1.44653490
 C           -1.71814260        1.05343629        2.69512141
 C           -2.25155464       -0.13855762        2.06397164
 C           -0.97069369        1.93992678        1.91029457
 C           -2.35781210       -0.13251301        0.68649226
 C           -0.96779099       -2.08192644        0.52631246
 C           -1.97984508       -1.27599861       -0.01518263
 C            1.36896022       -2.04080724        0.09454048
 C            0.10011845       -2.43939295       -0.29499596
 C            2.35074898        0.14486292       -0.03542229
 C            1.99691730       -1.05648156       -0.66673750
 C            1.13206445        2.18103439        0.09599748
 C            1.96097263        1.34258434       -0.63233545
 C           -1.21598097        1.94609726        0.53133288
 C           -2.20439918        1.08910670        0.05033926
 C           -0.18404211        2.32342496       -0.34028109
 C           -2.52550361        1.14020486       -1.29244489
 C           -2.18050008       -1.27917177       -1.40135880
 C           -2.71962333       -0.12293477       -1.97840019
 C           -0.12596731       -2.56988817       -1.65169380
 C           -1.40971177       -2.15172486       -2.17249150
 C            1.75088883       -1.05113735       -2.04558305
 C            0.87156733       -2.01786177       -2.54832464
 C            1.84248267        1.38606437       -2.00813973
 C            1.94961118        0.14316223       -2.74149638
 C           -0.41459905        2.28474276       -1.72124927
 C           -1.69574456        1.94621006       -2.16190195
 C            0.69121395        2.07837371       -2.55498313
 C           -2.56633070        0.15307310       -3.39843025
 C           -1.92069134        1.45436309       -3.51457925
 C           -1.21967525       -1.92716354       -3.59928048
 C            0.21600106       -1.84454361       -3.83532076
 C           -1.84112610       -0.78249090       -4.22966538
 C            1.31928276        0.37454336       -4.03434571
 C            0.52884996        1.59318837       -3.91674473
 C           -0.79915508        1.31583180       -4.41837274
 C            0.47466612       -0.65020529       -4.60914111
 C           -0.80616610       -0.04350238       -4.93505327
