56
Modified xyz file
 C            1.53669879        0.04598158        3.88626706
 C            0.75070337       -1.15433431        3.67056050
 C            1.44473975       -1.98202952        2.69974909
 C            2.67884567       -0.00610062        2.99023216
 C            2.68941657       -1.30457468        2.35144477
 C            2.64421836        1.17661298        2.15108050
 C            0.71813558        1.18068141        3.49520718
 C            1.45810397        1.94320673        2.51437935
 C           -0.60769999       -0.74535608        3.37753265
 C           -0.58912534        0.68680221        3.11961557
 C           -1.36092045       -1.55012276        2.54183107
 C            0.70149681       -2.62501968        1.70640321
 C           -0.69231940       -2.58553959        1.75995632
 C            1.32588491       -2.99614662        0.51904384
 C            3.16194931       -1.39168312        1.05135616
 C            2.62037923       -2.42469051        0.19106689
 C            2.99174424        1.07638098        0.80038059
 C            3.29674068       -0.17577822        0.25301846
 C            2.56786761        2.09151447       -0.05752032
 C            0.76255162        2.58020004        1.49589337
 C            1.52402715        2.98494865        0.40703291
 C           -1.17127222        1.17738337        1.95105060
 C           -0.59794159        2.27967785        1.30639896
 C           -2.32189069       -0.92005275        1.66057077
 C           -2.14392354        0.41295536        1.29464227
 C           -1.47566265       -2.78313857        0.54488419
 C           -2.63199199       -1.89528575        0.63818058
 C            0.55813011       -3.05676846       -0.71449832
 C           -0.83164836       -2.97130385       -0.68229848
 C            2.54294875       -1.89050461       -1.15847293
 C            2.85912953       -0.48554209       -1.10271137
 C            1.27155037       -2.27677850       -1.71372311
 C            2.23815016        1.76304619       -1.43520642
 C            2.05607381        0.42974959       -1.77492583
 C            0.87380024        3.54179977       -0.75865359
 C            1.30774248        2.75974776       -1.90909421
 C           -1.29851243        2.87692695        0.26063677
 C           -0.57089821        3.58873576       -0.77521342
 C           -2.72258207        0.87614965        0.10743932
 C           -2.36382309        2.13136446       -0.39027842
 C           -3.24597805       -1.45676298       -0.52082810
 C           -3.38790804       -0.02303465       -0.73340538
 C           -1.47793300       -2.58159229       -1.85565970
 C           -2.82086836       -2.04173414       -1.77454745
 C            0.54673013       -1.36571841       -2.46997104
 C            0.85211001        0.01101782       -2.38527121
 C           -0.73798647       -1.76912721       -2.81195952
 C            0.12648421        2.32095895       -2.61144445
 C           -0.99636391        3.05174211       -2.05229330
 C           -2.22846719        2.32396167       -1.83309761
 C           -0.05026232        0.96948170       -2.90115188
 C           -3.35337013        0.20529927       -2.16640610
 C           -2.96078140       -1.03451670       -2.81038886
 C           -1.64986600       -0.82042093       -3.40043199
 C           -2.48048570        1.24489623       -2.66434220
 C           -1.33587089        0.58243409       -3.28205987
