56
Modified xyz file
 C            1.50252169        0.02479765        3.81983320
 C            0.69117551       -1.17440486        3.71736768
 C            1.22714070       -1.99148984        2.64197784
 C            2.53847274       -0.05867071        2.80738817
 C            2.47078880       -1.37613307        2.20498422
 C            2.41798261        1.10079846        1.94043869
 C            0.65392581        1.15588016        3.48982434
 C            1.23074117        1.83181079        2.34615582
 C           -0.69523506       -0.76132984        3.63823896
 C           -0.70825654        0.67621744        3.38163509
 C           -1.57261925       -1.56983331        2.93087534
 C            0.34614747       -2.52103525        1.69644957
 C           -1.02506981       -2.52743909        1.97657542
 C            0.79354169       -2.77358965        0.39419083
 C            2.84239416       -1.49830321        0.87722596
 C            2.07277720       -2.36942180        0.00913950
 C            2.66410381        0.94486113        0.57822329
 C            3.12581037       -0.29110124        0.11449957
 C            2.05680111        1.82478329       -0.32188058
 C            0.38551047        2.30150891        1.35115501
 C            0.92997007        2.55109162        0.09283929
 C           -1.51490838        1.18092629        2.36213500
 C           -1.00187151        2.14375097        1.48349969
 C           -2.72459384       -0.94725769        2.30848514
 C           -2.65771313        0.46861397        1.99895743
 C           -1.98970283       -2.67724530        0.89723755
 C           -3.00555146       -1.65454786        1.07014918
 C           -0.11452516       -3.18338702       -0.58067656
 C           -1.52938808       -2.93630961       -0.38326410
 C            0.16493922       -2.91301586       -1.98181557
 C            2.31759322       -1.92946323       -1.35842150
 C            2.98400257       -0.63499766       -1.29272747
 C            1.35897065       -2.16685184       -2.33541060
 C            2.34862432        1.68579561       -1.67911383
 C            2.64850853        0.36427164       -2.19664067
 C            1.54043562        2.35843987       -2.67538628
 C            0.18863222        3.30540615       -0.81210133
 C            0.44231507        3.18914398       -2.23343435
 C           -1.83491255        2.63151296        0.47685175
 C           -1.24974092        3.33941149       -0.65053458
 C           -3.21883638        0.64015303        0.66919027
 C           -3.18240373       -0.66086367        0.02289120
 C           -2.85579836        1.75268370       -0.06591180
 C           -1.95965906       -2.07200978       -1.47275549
 C           -0.98370595       -2.20400542       -2.52928718
 C           -2.49174715       -0.81809603       -1.17992373
 C            0.95402718       -1.08985942       -3.22448186
 C            1.69058673        0.08798170       -3.25884928
 C            0.98932829        1.32966761       -3.54309325
 C           -0.49848181       -1.00632456       -3.17477960
 C           -0.77333534        2.66924450       -2.84135885
 C           -1.82797353        2.77366498       -1.86155515
 C           -2.52950653        1.57068280       -1.46603354
 C           -2.07974937        0.31849777       -1.89554757
 C           -0.45353834        1.36422990       -3.38027862
 C           -1.09894491        0.22115841       -2.90315164
