56
Modified xyz file
 C            1.20938108       -0.14460900        3.93976722
 C            2.48269016       -0.47492370        3.33146553
 C            2.30901846       -1.71873235        2.59483883
 C            0.34552818       -1.30314136        3.79397139
 C            0.93506475       -2.15974544        2.78030365
 C           -0.99992932       -0.81313027        3.58553925
 C            0.46905040        1.00861595        3.45010967
 C           -0.92954580        0.63293722        3.43228167
 C            0.97370372        1.75921174        2.38913575
 C            3.08560354        0.48772438        2.43246092
 C            2.32553295        1.66292630        2.04821112
 C            2.79397488       -1.50629198        1.24113971
 C            3.42981121       -0.20485994        1.20030966
 C            1.98087849       -1.87864040        0.17956431
 C            0.18764665       -2.50862967        1.65443442
 C            0.86011198       -2.66570892        0.43888468
 C           -1.75229208       -1.32785700        2.46037298
 C           -1.20329598       -2.31890554        1.65334014
 C           -1.72927462        0.99392462        2.27615643
 C           -2.40359132       -0.20283499        1.81260726
 C            0.09156883        2.37194190        1.49241617
 C           -1.20303178        1.85614402        1.32634477
 C            0.63536848        3.17609607        0.49174278
 C            2.72702614        1.96063494        0.68602867
 C            3.11076332        0.68904227        0.09702584
 C            1.92656393        2.80495044       -0.05954776
 C            2.04462561       -1.15690055       -1.01474516
 C            2.37604763        0.19862107       -0.98404415
 C            1.40136613       -1.66584357       -2.13336696
 C            0.19865728       -3.25347411       -0.63062702
 C            0.55917983       -2.83918197       -1.97532659
 C           -1.91886580       -2.64034694        0.50513988
 C           -1.24406476       -3.34304203       -0.56781417
 C           -2.71791994       -0.31737397        0.45991244
 C           -2.74186854       -1.60015117       -0.09641418
 C           -1.81142170        1.89903499        0.07199499
 C           -2.55073907        0.79159291       -0.37903065
 C           -0.19553984        3.57750023       -0.63066674
 C           -1.48569802        2.94290335       -0.79011951
 C            1.66945097        2.45325562       -1.44097598
 C            1.68346496        1.10272081       -1.80168116
 C            0.56286425        3.29473945       -1.84159153
 C            0.72587209       -0.74709856       -3.03083110
 C            0.82586662        0.62722014       -2.80854074
 C           -0.66666459       -2.62031920       -2.72374165
 C           -1.78258446       -2.86397489       -1.83000569
 C           -2.70137935       -1.77440314       -1.54120038
 C           -0.56896287       -1.32669000       -3.37180516
 C           -2.85941675        0.65157020       -1.73356892
 C           -2.70380837       -0.64875318       -2.35563193
 C           -1.68704373       -0.50288529       -3.39400624
 C           -1.68602990        2.79342759       -2.21611728
 C           -0.36468892        2.79028233       -2.82583913
 C           -0.15471406        1.45996246       -3.35850183
 C           -2.38421697        1.62300017       -2.69702530
 C           -1.48009399        0.91846796       -3.59273323
