56
Modified xyz file
 C            1.48928565       -0.19941307        4.19059945
 C            0.63679194       -1.37578301        4.20592830
 C            1.13654378       -2.30220233        3.20536971
 C            2.52815375       -0.41881153        3.20188195
 C            2.37785806       -1.76550629        2.67782021
 C            2.50057646        0.69590251        2.26734945
 C            0.68944372        0.92544938        3.73772898
 C            1.35364683        1.52477650        2.59261128
 C           -0.69120464       -0.96481448        3.79067020
 C           -0.67659113        0.46925920        3.56636462
 C            0.05346211       -2.59294219        2.27685432
 C           -1.10359103       -1.81561016        2.68698338
 C            0.34169258       -2.69632768        0.91758723
 C            2.65736821       -1.97228174        1.33612705
 C            1.67849517       -2.66372139        0.51246022
 C            2.77187030        0.44900081        0.92835254
 C            3.11529388       -0.84786807        0.53983493
 C            2.26072078        1.32191722       -0.03088012
 C            0.56217714        2.00268821        1.55129872
 C            1.09539218        2.05159093        0.25824065
 C           -1.38694420        0.94931065        2.47475970
 C           -0.82387064        1.97078896        1.70950451
 C           -1.89889535       -1.25160624        1.69772845
 C           -2.27869677        0.08299928        1.84759490
 C           -0.66531974       -2.41825020       -0.01289880
 C           -1.84131989       -1.78730197        0.41154075
 C           -0.37715931       -2.51427490       -1.37504165
 C            2.00769395       -2.35159380       -0.87064450
 C            2.95168096       -1.23950701       -0.85151226
 C            0.99818461       -2.38119410       -1.82244758
 C            2.64787049        1.12134934       -1.35114681
 C            2.85239643       -0.24027069       -1.80909113
 C            1.98276027        1.84510835       -2.41045619
 C            0.32600675        2.61194204       -0.77346802
 C            0.78399308        2.58581683       -2.09002708
 C           -1.61782617        2.56135429        0.73546957
 C           -1.02001930        2.90084320       -0.54376121
 C           -3.17594912        0.62747645        0.93724607
 C           -2.92480582        1.98021420        0.47237550
 C           -2.77690345       -1.35048108       -0.52482905
 C           -3.56297829       -0.17031966       -0.21277874
 C           -1.22596318       -1.85122331       -2.35042467
 C           -2.41792747       -1.27998749       -1.93097884
 C            1.01872685       -1.43416610       -2.92769657
 C            1.98712169       -0.43394823       -2.95939264
 C            1.64781185        0.88782967       -3.45632417
 C           -0.36447664       -1.13771920       -3.28274186
 C           -0.16742592        2.33386659       -3.15850174
 C            0.28872015        1.15975777       -3.88345331
 C           -0.72434346        0.13087414       -3.73119519
 C           -2.00140664        2.62448560       -1.58641076
 C           -3.16131055        2.01962777       -0.95988757
 C           -3.56776039        0.69335431       -1.38283055
 C           -2.81053260        0.03026367       -2.43060514
 C           -1.55920459        2.12906048       -2.80640450
 C           -1.91931333        0.77021760       -3.20445197
