56
Modified xyz file
 C            1.47215545        0.03494792        3.88582396
 C            0.67967824       -1.17443114        3.75707072
 C            1.24600621       -1.96259745        2.67736236
 C            2.57530320       -0.06928835        2.95065806
 C            2.56197521       -1.41117586        2.39591253
 C            2.49391257        1.04872950        2.02451876
 C            0.63886041        1.14368026        3.45948990
 C            1.22777219        1.71751778        2.26520660
 C           -0.70677314       -0.77587728        3.64703972
 C           -0.72549220        0.66063484        3.38180626
 C           -1.54869672       -1.58470881        2.89835071
 C            0.41422805       -2.34735467        1.62084558
 C           -0.96054193       -2.39254290        1.83187461
 C            0.90983565       -2.33154884        0.31368029
 C            3.08208027       -1.57234388        1.12436275
 C            2.29064097       -2.29068731        0.14431336
 C            2.89435836        0.82898487        0.71104069
 C            3.53167931       -0.38280936        0.42982020
 C            2.23443298        1.50727896       -0.32129819
 C            0.39826967        1.98702693        1.18480184
 C            0.93966871        2.01246198       -0.10359933
 C           -1.54698897        1.13965036        2.36271787
 C           -0.98849901        1.93793047        1.35458132
 C           -2.75094287       -0.98059679        2.36348839
 C           -2.72710403        0.44416092        2.10294645
 C           -1.85215464       -2.34195507        0.68845988
 C           -3.05157618       -1.64004744        1.10883518
 C            0.05382424       -2.01657081       -0.75866778
 C           -1.33321115       -2.08449479       -0.57905836
 C            0.57262404       -1.57369640       -1.98918804
 C            2.84618605       -1.94754011       -1.14875224
 C            3.71587710       -0.79265606       -0.94639759
 C            1.94527464       -1.61796900       -2.22970868
 C            2.72894089        1.38337850       -1.61960577
 C            3.41908685        0.16259897       -1.98917907
 C            2.56549815       -0.51821872       -2.94400663
 C            1.87871496        1.71207135       -2.74130767
 C            1.70605196        0.49041730       -3.52106319
 C            0.15165419        2.47114372       -1.17045853
 C            0.55542647        2.23992406       -2.48289606
 C           -1.80087349        2.40903288        0.33020718
 C           -1.20036246        2.73408633       -0.95258050
 C           -3.43026538        0.66188443        0.85236262
 C           -3.61002238       -0.64359949        0.21689974
 C           -3.07941573        1.76086779        0.07862582
 C           -2.18267436       -1.55181831       -1.55002064
 C           -3.34902282       -0.77731413       -1.13938074
 C           -0.24279057       -0.86189657       -2.87774275
 C            0.28194096        0.23445642       -3.56314577
 C           -0.34507585        1.52583349       -3.37236393
 C           -1.62162727       -0.92023598       -2.72857508
 C           -2.15640199        2.37740336       -1.99033922
 C           -3.27656132        1.70220127       -1.35845634
 C           -3.42173318        0.40121015       -1.98178842
 C           -1.70362141        1.55420684       -3.09895786
 C           -2.39952890        0.28025387       -3.00456497
