56
Modified xyz file
 C            1.24842886       -0.14405911        3.56518687
 C            2.46106004       -0.42643639        2.83746688
 C            2.36000005       -1.77475384        2.30064809
 C            0.39074614       -1.31618126        3.48243822
 C            1.05792067       -2.30472288        2.65717454
 C           -0.94076507       -0.86920909        3.11016754
 C            0.46224888        1.00720001        3.17164783
 C           -0.92506959        0.58481901        3.05656518
 C            0.95922987        1.92518535        2.24904797
 C            2.83171613        0.45544055        1.74969344
 C            2.14528304        1.64899682        1.53726910
 C            2.74258850       -1.72693487        0.89971423
 C            3.16937916       -0.36863651        0.59939811
 C            1.99753989       -2.42262802       -0.04587897
 C            0.32235065       -2.97760439        1.69255303
 C            0.87628327       -3.15596949        0.35684756
 C           -1.66375228       -1.57001612        2.15132608
 C           -1.09921240       -2.69592508        1.54237783
 C           -2.74506758       -0.92946791        1.55575966
 C           -1.76489785        1.24836380        2.16004862
 C           -2.76157329        0.52515374        1.50224480
 C            0.04797817        2.85990774        1.76243065
 C           -1.34610149        2.46776721        1.62432655
 C            0.38754187        3.70599108        0.63672983
 C            2.41744049        2.30813977        0.34046690
 C            1.60017507        3.42361123       -0.09099193
 C            2.97480239        0.14464001       -0.68434950
 C            2.74834950        1.51431189       -0.83283367
 C            2.15079570       -2.06955752       -1.38233636
 C            2.59116280       -0.72131331       -1.71003737
 C            1.14586115       -2.46211617       -2.35436827
 C           -0.24629689       -3.34866071       -0.55337071
 C           -1.47026052       -3.06363487        0.18115916
 C           -0.12958032       -2.96359339       -1.88271089
 C           -3.28310084       -1.43075987        0.30354002
 C           -2.51987360       -2.40697477       -0.44824351
 C           -3.15669553        0.91144087        0.15549592
 C           -3.53780645       -0.29168387       -0.56288072
 C           -1.77129308        2.84514296        0.28488353
 C           -0.72205604        3.66048415       -0.30298604
 C           -2.44205554        1.91078409       -0.49630125
 C            1.24720391        3.20192927       -1.48477157
 C            1.91205238        1.98744483       -1.92556349
 C           -0.19492339        3.29827752       -1.60465259
 C            1.73915445       -0.22862200       -2.78260698
 C            0.89115790       -1.32303477       -3.22078913
 C            1.21921828        1.05823371       -2.69353720
 C           -1.17856421       -2.16643237       -2.50173573
 C           -2.34835056       -1.89402809       -1.79971863
 C           -2.93247640       -0.56169898       -1.85181660
 C           -0.54218757       -1.11831625       -3.28628102
 C           -2.09417038        1.75378583       -1.84222357
 C           -0.86861777        2.34868760       -2.35880285
 C           -0.11868608        1.29378396       -3.02778190
 C           -2.25909668        0.46423201       -2.50225203
 C           -1.03513779        0.17921691       -3.23678566
