56
Modified xyz file
 C            1.38759848       -0.03373186        3.96900100
 C            0.58431216       -1.23592997        3.85262369
 C            1.24161595       -2.12762497        2.90977995
 C            2.47275849       -0.13859013        3.01190319
 C            2.28057298       -1.35823060        2.24496296
 C            2.53715212        1.11583525        2.28978378
 C            0.56079541        1.08787203        3.55975792
 C            1.29678556        1.83280540        2.55382049
 C           -0.78533587       -0.83122072        3.58310218
 C           -0.74847805        0.57246265        3.20641490
 C           -1.58700567       -1.69713335        2.85513121
 C            0.44756811       -2.97416908        2.15302252
 C           -0.99143167       -2.92874925        2.36044198
 C            0.66712720       -3.04240190        0.71801025
 C            2.31267709       -1.28119736        0.85038735
 C            1.42720193       -2.05380363        0.08948730
 C            2.99512811        1.07988903        0.98259528
 C            2.95261301       -0.19061741        0.26617000
 C            2.51718040        2.09064205        0.05935047
 C            0.59851507        2.36641707        1.47233602
 C            1.32610363        2.75396595        0.34421025
 C           -1.30735264        0.97632144        1.99751206
 C           -0.76735267        2.08270027        1.34216538
 C           -2.41385157       -1.16233200        1.78455614
 C           -2.19226268        0.13251930        1.31553654
 C           -1.63003319       -3.25622003        1.10010263
 C           -0.58156478       -3.48247318        0.11819825
 C           -2.63129305       -2.23682519        0.83063540
 C           -0.83982112       -3.15403446       -1.20241082
 C            1.17831230       -1.73789991       -1.25510610
 C            0.15104512       -2.39079974       -1.94094660
 C            2.73046467        0.10701452       -1.13678529
 C            2.72691525        1.55770470       -1.27312668
 C            1.82066327       -0.65327828       -1.86285388
 C            2.05259298        2.14063959       -2.33699519
 C            0.67429873        3.42666541       -0.68474915
 C            1.10940490        3.21174849       -2.05718084
 C           -1.47589143        2.62478209        0.27992760
 C           -0.77464596        3.45319154       -0.68348657
 C           -2.65059518        0.48695167        0.04115035
 C           -2.38630353        1.76246611       -0.45048629
 C           -2.89529902       -1.91254323       -0.49169106
 C           -2.14093378       -2.59311936       -1.53209705
 C           -2.99074687       -0.51133565       -0.87164103
 C           -0.55539424       -1.69186025       -3.00222479
 C           -1.95617441       -1.66464256       -2.63211359
 C           -2.54237406       -0.39121962       -2.25242442
 C            1.32403445       -0.14260260       -3.06236253
 C            1.45797060        1.27893251       -3.34223103
 C           -0.00105925       -0.52940026       -3.50656397
 C           -0.07388304        2.99909793       -2.87602552
 C           -1.23274002        3.08093150       -2.01229586
 C           -2.09762609        1.92188893       -1.86771865
 C           -1.90864863        0.78259133       -2.65220429
 C            0.12993801        1.79236584       -3.64901538
 C           -0.80324754        0.68558393       -3.50734046
