56
Modified xyz file
 C            1.29333683       -0.07815080        3.83360985
 C            2.43031184       -0.45528382        3.02191403
 C            2.15780558       -1.78054551        2.48060357
 C            0.45183086       -1.25525170        3.94180894
 C            0.78934214       -2.10391890        2.81121090
 C           -0.90902048       -0.78495122        4.07150229
 C            0.43976363        0.99524156        3.36023507
 C           -0.90522672        0.64056109        3.75304619
 C            0.66795864        1.52597001        2.09020706
 C            2.78016890        0.38841469        1.89745702
 C            1.96506383        1.46588772        1.56558260
 C            2.53942119       -1.76221773        1.08837815
 C            3.20375797       -0.49610950        0.82969226
 C            1.65362650       -2.23287012        0.13334387
 C           -0.14076911       -2.28304749        1.78183042
 C            0.27889510       -2.28622797        0.43941174
 C           -1.91967744       -1.40687021        3.24297262
 C           -1.49931659       -2.17135457        2.07837234
 C           -1.98391706        0.88213775        2.82249770
 C           -2.76556801       -0.33810371        2.75708040
 C           -0.41455832        1.84716254        1.24772257
 C           -1.73506103        1.56121207        1.63129022
 C           -0.16103444        2.40343860       -0.01516664
 C            2.23241819        2.09839996        0.36237467
 C            1.14945963        2.75377551       -0.33705326
 C            3.19896203        0.00017324       -0.47325326
 C            3.00580625        1.37297067       -0.63708160
 C            2.05870231       -2.05934073       -1.18128732
 C            2.84350239       -0.87579286       -1.50514351
 C            1.12029537       -2.29075798       -2.25055362
 C           -0.68276086       -2.25055580       -0.59030586
 C           -0.28658599       -2.31666006       -1.92597317
 C           -2.43928625       -1.86578890        1.01696721
 C           -3.26117511       -0.74022329        1.45906897
 C           -2.00868891       -1.90826716       -0.30638101
 C           -2.71991576        1.48787548        0.64927986
 C           -3.51635802        0.26851569        0.54535556
 C           -1.14995452        2.38440874       -1.01169877
 C           -2.42954798        1.94614719       -0.69412412
 C           -0.78919757        2.37000612       -2.36097984
 C            1.56007578        2.85863511       -1.72602965
 C            2.64320496        1.90896061       -1.93581164
 C            0.57508474        2.64047050       -2.75831329
 C            2.37316748       -0.37008192       -2.78836129
 C            1.33311613       -1.26930561       -3.26461804
 C            2.24094279        0.99805211       -2.98934538
 C            1.01965282        1.52285017       -3.57924547
 C           -0.97388829       -1.49811282       -2.91063833
 C           -1.28358131        1.29950470       -3.21095522
 C            0.03340677       -0.73286902       -3.63119416
 C           -0.12180204        0.64096400       -3.78403220
 C           -2.76519390       -1.23733095       -1.27006434
 C           -3.55628230       -0.09828492       -0.85273051
 C           -3.09982356        1.04433625       -1.61692596
 C           -2.17089705       -0.89589131       -2.55197497
 C           -2.34999204        0.53809451       -2.75357367
