56
Modified xyz file
 C            1.47946712       -0.11519777        4.14698619
 C            0.66553413       -1.30458889        4.30030385
 C            1.17166241       -2.30017023        3.37506778
 C            2.42850885       -0.35881468        3.07186316
 C            2.15452185       -1.66331937        2.51430835
 C            2.37168484        0.77813619        2.18638774
 C            0.60803351        0.95824454        3.70631531
 C            1.28724897        1.63346901        2.62484721
 C           -0.68554243       -0.97820122        3.87405033
 C           -0.69691016        0.39928767        3.42405877
 C            0.02401693       -2.91206234        2.74273305
 C           -1.10385569       -2.00358400        2.94043404
 C            0.20786563       -3.44248075        1.47640292
 C            2.01155302       -1.79912165        1.13130508
 C            1.28364067       -2.89055297        0.65627978
 C            2.48197942        0.57807621        0.81678815
 C            2.23831344       -0.70069822        0.28210070
 C            2.20400362        1.68233290        0.01591186
 C            0.52490203        2.20147445        1.61703038
 C            1.20810426        2.56268342        0.46561154
 C           -1.27930533        0.69623719        2.19465618
 C           -0.80961546        1.80016311        1.46897747
 C           -1.86731316       -1.63466308        1.83272648
 C           -2.05151311       -0.27314407        1.54611696
 C           -0.95918917       -3.54856199        0.62656015
 C           -2.01618994       -2.57475897        0.81338781
 C            0.84412774       -2.91420237       -0.72612689
 C           -0.51026928       -3.44244025       -0.74588988
 C            1.98423850       -0.82431363       -1.09599255
 C            1.15039783       -1.84746516       -1.56234777
 C            2.46641901        1.55814620       -1.34061674
 C            2.27954911        0.25239975       -1.93813021
 C            1.98091833        2.56262316       -2.26765658
 C            0.51617025        3.35816530       -0.43426593
 C            1.02078618        3.52639525       -1.78104514
 C           -1.50664653        2.21730812        0.32684282
 C           -0.92257543        3.18310804       -0.49878067
 C           -2.75993446        0.09619114        0.40705531
 C           -2.51294523        1.39877191       -0.19207295
 C           -2.45596840       -2.15509367       -0.50599799
 C           -1.52459984       -2.71041760       -1.48209464
 C           -2.93605365       -0.86382137       -0.67171569
 C            0.31335857       -1.61543514       -2.65516770
 C           -1.10406683       -1.92109157       -2.54239073
 C            1.51678847        0.44327691       -3.16344791
 C            1.38625215        1.87120070       -3.39919481
 C            0.43577966       -0.38806501       -3.41520279
 C           -0.11615677        3.52654894       -2.68452409
 C           -1.30737308        3.25179261       -1.89782982
 C            0.06234729        2.42703630       -3.61641264
 C           -2.66852791        1.25421413       -1.63573015
 C           -2.71096282       -0.16838869       -1.92884596
 C           -1.82901373       -0.70376471       -2.86131422
 C           -0.90487211        0.17490703       -3.56033650
 C           -1.97744574        2.11006278       -2.48377383
 C           -1.09132754        1.55216641       -3.49820458
