56
Modified xyz file
 C            1.59454693       -0.13818147        4.09131325
 C            0.75350084       -1.31392428        4.21847765
 C            1.24404305       -2.30177955        3.28006121
 C            2.51496479       -0.35871382        2.98670768
 C            2.28197783       -1.68609823        2.46614632
 C            2.39033783        0.76044345        2.08094265
 C            0.73949637        0.97045788        3.71726253
 C            1.37885998        1.65832871        2.61057422
 C           -0.59067728       -0.95559519        3.79292971
 C           -0.60037278        0.45989149        3.49510401
 C            0.08970489       -2.84974589        2.59403442
 C           -0.98605804       -1.87880752        2.74730469
 C            0.30527158       -3.37803080        1.33375514
 C            2.22166845       -1.88120104        1.08769078
 C            1.54051929       -3.01653401        0.65709743
 C            2.38911662        0.53087020        0.71005501
 C            2.34935339       -0.78435273        0.21118079
 C            1.97107541        1.57880144       -0.10860979
 C            0.55911753        2.29596357        1.68744304
 C            1.07891842        2.52242287        0.41377070
 C           -1.25789820        0.90512653        2.35644733
 C           -0.81922976        2.10068371        1.80287063
 C           -1.61234681       -1.37869238        1.60386196
 C           -1.90675520       -0.00735983        1.51411076
 C           -0.73704501       -3.23200887        0.33912181
 C           -1.63513260       -2.17234865        0.45339989
 C            1.32449556       -3.22442097       -0.75564605
 C           -0.09762672       -3.48001653       -0.94012556
 C            2.23548293       -0.98261972       -1.17694058
 C            1.69504247       -2.17129234       -1.67123340
 C            2.13751109        1.45082177       -1.47994534
 C            2.28398616        0.11779425       -2.03319351
 C            1.32441698        2.23805550       -2.39332947
 C            0.35046083        3.34796480       -0.43906318
 C            0.42974711        3.16393647       -1.87851878
 C           -1.64954169        2.71567834        0.88070178
 C           -1.03899507        3.59059616       -0.10122020
 C           -2.55534068        0.49287329        0.37587812
 C           -2.60798306        1.87627819        0.18157643
 C           -2.27420030       -1.70466069       -0.68958387
 C           -2.80119965       -0.35399497       -0.70539339
 C           -0.53421828       -2.72309835       -2.09811079
 C            0.65103507       -2.11561478       -2.68256182
 C           -1.70271452       -1.97912825       -2.00417609
 C            1.52992801        0.07231704       -3.27720464
 C            0.88386424        1.35864949       -3.46381797
 C            0.52631170       -0.96244298       -3.44409357
 C           -2.68676073        0.14567526       -2.07133084
 C           -1.85306380       -0.78321305       -2.81512351
 C           -0.54071234        1.12639895       -3.65109704
 C           -0.77144175       -0.30679750       -3.55096472
 C           -0.92655737        3.19445866       -2.40616238
 C           -1.82812214        3.51486124       -1.31555563
 C           -2.75356528        2.40508348       -1.16591373
 C           -1.44536023        2.01614873       -3.08072013
 C           -2.56183606        1.51009294       -2.29018394
