56
Modified xyz file
 C            1.55172964        0.17805546        4.21276065
 C            0.82065665       -1.07251745        4.11318410
 C            1.61954056       -1.98139533        3.31428402
 C            2.62923551        0.13742427        3.23698674
 C            2.73351053       -1.22292909        2.76224292
 C            2.39059779        1.19416250        2.26740047
 C            0.65334999        1.24752872        3.82121871
 C            1.32307580        2.02726762        2.80026562
 C           -0.53439184       -0.76991979        3.68352276
 C           -0.63950451        0.66837399        3.49471382
 C           -1.16216315       -1.61171792        2.77731884
 C            0.98353807       -2.69531509        2.21838526
 C           -0.39328654       -2.63289456        2.07072052
 C            2.74454638       -1.44829472        1.33375808
 C            1.81865468       -2.52950394        1.04269688
 C            2.41268911        0.90688281        0.89591766
 C            2.79291791       -0.37062998        0.45284127
 C            1.79095922        1.80194348        0.01153591
 C            0.52674412        2.71265721        1.90191783
 C            0.96421259        2.80004321        0.52620353
 C           -1.33037838        1.17615191        2.39159967
 C           -0.89006517        2.38356681        1.84344262
 C           -2.10672458       -1.04540987        1.83268132
 C           -2.15670665        0.33156937        1.63724115
 C           -0.95605080       -2.76111901        0.73987642
 C           -2.14466075       -1.92661860        0.67836270
 C            1.25267970       -2.57422710       -0.23190347
 C           -0.12164442       -2.82267938       -0.37534723
 C            2.66357922       -0.68456185       -0.89318307
 C            1.93591665       -1.89567269       -1.24118935
 C            1.75930746        1.53925930       -1.36167803
 C            2.27556860        0.34034596       -1.83809614
 C            0.93402308        2.30513440       -2.18844417
 C           -0.19822041        3.21492921       -0.23398431
 C           -1.36661998        2.80997380        0.53772416
 C           -0.18370744        3.02560482       -1.60580132
 C           -2.77153529        0.80630614        0.48023958
 C           -2.37964506        2.08997370       -0.07729293
 C           -2.53737073       -1.42181871       -0.55679238
 C           -3.01216161       -0.10968251       -0.62808576
 C           -0.72395047       -2.68017223       -1.62544026
 C           -2.02837561       -2.03769070       -1.69828248
 C            1.31658076       -1.69008304       -2.53599791
 C            1.63858397       -0.33268868       -2.96220221
 C            0.05248090       -2.21256221       -2.75989551
 C            0.47601360        1.76123970       -3.45770383
 C            0.76251377        0.37536775       -3.77718863
 C           -1.38583665        2.56143629       -2.27685707
 C           -2.40606327        1.98122526       -1.52825116
 C           -2.90420547        0.65322243       -1.86563590
 C           -0.96682285        1.94767532       -3.52455207
 C           -2.13143445       -1.37950769       -2.98824385
 C           -0.85535812       -1.53541228       -3.66972021
 C           -0.47948509       -0.24267936       -4.21168170
 C           -2.49556322        0.02271780       -3.03631579
 C           -1.56127371        0.68766453       -3.92927646
