56
Modified xyz file
 C            1.07391727        0.05631743        4.00723631
 C            2.32687224       -0.17440193        3.32603001
 C            2.33263351       -1.57013023        2.92122880
 C            0.28078176       -1.16136596        3.88436765
 C            0.94688545       -1.99219320        2.90274015
 C           -1.08837386       -0.76276134        3.64277618
 C            0.23421214        1.14361617        3.55247927
 C           -1.12831361        0.68502216        3.72305170
 C            0.55404581        1.83515696        2.37985277
 C            2.61328189        0.59919721        2.13382024
 C            1.60127844        1.37738665        1.56468093
 C            3.08429114       -1.64363557        1.68827261
 C            3.38894038       -0.27658894        1.28621485
 C            2.47051055       -2.28569950        0.54191366
 C            0.33789642       -2.24308301        1.66936985
 C            1.13445334       -2.67666629        0.59908061
 C           -1.70494476       -1.12569952        2.38449914
 C           -0.97616201       -1.80698841        1.42030856
 C           -2.10959225        1.14974842        2.76727136
 C           -2.51422656        0.00004844        1.96003347
 C           -0.43208787        2.64739577        1.82760229
 C           -1.83271327        2.33513281        2.10704699
 C           -0.33971982        3.02235618        0.43039345
 C            1.52825900        1.52085532        0.16295298
 C            0.51896252        2.31267241       -0.40658214
 C            3.18893490       -0.19834576       -0.14109265
 C            2.91794968       -1.54397031       -0.62038968
 C            2.43527633        0.84047038       -0.66750794
 C            2.20774743       -1.68115713       -1.80948768
 C            0.52197271       -3.00771158       -0.60433021
 C            1.18481968       -2.63512506       -1.84584948
 C           -1.46354927       -1.81232606        0.11930696
 C           -0.88208256       -2.69516569       -0.77546884
 C           -2.76079171        0.18777256        0.59542598
 C           -2.24004033       -0.73130697       -0.33731589
 C           -2.58069377        2.60677489        0.90217193
 C           -1.69283959        3.30365667       -0.00780622
 C           -3.11723307        1.47137086        0.17761466
 C           -2.07922844        2.91170322       -1.34308710
 C           -3.03815932        1.81813367       -1.22166879
 C            0.24669080        2.24006297       -1.78219935
 C           -1.05009618        2.45436317       -2.25120221
 C            2.18050823        0.76151136       -2.02897849
 C            2.14270034       -0.55946872       -2.63976955
 C            1.11960649        1.55136901       -2.61350528
 C            1.21216714       -0.51113426       -3.75322099
 C            0.57613139        0.79652766       -3.73707579
 C            0.15464833       -2.58480161       -2.87174803
 C           -1.13210974       -2.54924878       -2.19045940
 C            0.17242866       -1.51391605       -3.84665905
 C           -2.39056281       -0.49360321       -1.71835890
 C           -2.64128683        0.79924540       -2.16674630
 C           -1.67544120        1.42164873       -3.05408464
 C           -0.86229258        0.59940525       -3.81926992
 C           -1.84643975       -1.37926571       -2.64644427
 C           -1.10982282       -0.83316094       -3.77743457
