56
Modified xyz file
 C            1.51807941        0.06201186        4.16429168
 C            0.68214088       -1.12637627        4.14556461
 C            1.32002508       -2.10284296        3.28159528
 C            2.56079399       -0.11698034        3.16973383
 C            2.50401700       -1.48364504        2.70629259
 C            2.42555734        0.93923086        2.18649266
 C            0.69733630        1.18600031        3.74728121
 C            1.27388288        1.74957484        2.53787140
 C           -0.67686905       -0.70969861        3.84703029
 C           -0.68032242        0.74148446        3.70832127
 C           -1.45043139       -1.48230450        2.98497610
 C            0.55337052       -2.68812976        2.19371277
 C           -0.81767588       -2.48851724        2.13608821
 C            2.47148316       -1.71338899        1.27547403
 C            1.33523203       -2.55775623        0.97625967
 C            2.62068495        0.65987678        0.84178305
 C            2.73220473       -0.66722098        0.39736778
 C            2.14877358        1.60063972       -0.06319364
 C            0.42295546        2.17729811        1.51373228
 C            0.89781776        2.17981731        0.19404024
 C           -1.52460537        1.33264330        2.77897136
 C           -0.95273168        2.18755851        1.74489823
 C           -2.49971154       -0.84816631        2.20367684
 C           -2.56962717        0.53996726        2.15384567
 C           -1.46486286       -2.43978000        0.83790710
 C           -2.65314012       -1.61864246        0.97870252
 C            0.70127556       -2.36176381       -0.24927629
 C           -0.69963001       -2.33650870       -0.32500879
 C            2.48993595       -0.90643027       -0.95591221
 C            1.44559583       -1.78951005       -1.28289904
 C            2.58831419        1.47331205       -1.37076324
 C            2.82325075        0.12225992       -1.83385953
 C            1.88356285        2.18033203       -2.41370153
 C            0.00963437        2.43123043       -0.86674328
 C            0.50305147        2.53623303       -2.16841984
 C           -1.86828946        2.17470901        0.61972559
 C           -2.90814965        1.19095294        0.90083059
 C           -1.36766749        2.28952110       -0.67279462
 C           -3.17080509       -1.00811583       -0.15397499
 C           -3.41272461        0.42891716       -0.14459841
 C           -1.32327755       -1.91842180       -1.50803821
 C           -2.59317884       -1.33817980       -1.44594477
 C            0.88497980       -1.78495282       -2.55672364
 C           -0.56047816       -1.76311807       -2.66744184
 C            2.42701579        0.04754324       -3.22427333
 C            1.94194206        1.36233462       -3.61331766
 C            1.42700050       -0.92688196       -3.59401548
 C           -0.28742590        2.01703714       -3.27553574
 C           -0.91247765       -0.72522676       -3.63045581
 C            0.58675713        1.20509141       -4.10586364
 C            0.31721749       -0.21646988       -4.20940717
 C           -2.17700379        1.89383075       -1.73767482
 C           -3.21611208        0.91042495       -1.49960110
 C           -2.91352835       -0.23831608       -2.33542910
 C           -1.57279526        1.56327232       -3.01428910
 C           -1.92036743        0.17424009       -3.30731002
