56
Modified xyz file
 C            1.46181655       -0.02186061        4.20102993
 C            0.71429655       -1.21382210        3.84722256
 C            1.58712946       -2.07507825        3.06801830
 C            2.73717031       -0.07477130        3.50549413
 C            2.76722331       -1.29900588        2.72762628
 C            2.77865615        1.03407804        2.57036614
 C            0.72516668        1.11928240        3.69027675
 C            1.58966364        1.84202662        2.77459346
 C           -0.55356758       -0.79872363        3.26191503
 C           -0.55608776        0.65063617        3.18328387
 C           -1.05902234       -1.52678876        2.19252249
 C            1.00943415       -2.83812130        2.06680914
 C           -0.41952449       -2.71674884        1.84386662
 C            1.60087402       -2.80059403        0.74199306
 C            2.98629808       -0.94561384        1.33138298
 C            3.01425565        0.50248226        1.23612415
 C            2.31462856       -1.66679071        0.35263376
 C            2.36553874        1.12290559        0.17219038
 C            0.99889164        2.39658236        1.64916576
 C            1.69332693        2.31143562        0.44458241
 C           -1.05976429        1.26506002        2.04026388
 C           -0.39252353        2.39802400        1.58217195
 C           -1.85748135       -0.88072310        1.24431674
 C           -1.80702846        0.51451626        1.12316053
 C           -2.43334634       -1.64022447        0.23009830
 C           -0.67564899       -3.30311418        0.54153830
 C            0.60811824       -3.35635754       -0.15860574
 C           -1.81209114       -2.90199643       -0.14565140
 C            0.66981539       -3.00496742       -1.49924109
 C            1.99055294       -1.04042126       -0.85430149
 C            1.95078310        0.35857027       -0.92625056
 C            1.40106826       -1.79935356       -1.86111162
 C            1.26705080        0.99732470       -1.97328340
 C            1.19618007        3.04228561       -0.62191981
 C            1.10654711        2.38506919       -1.91359783
 C           -0.97306014        3.13232555        0.56113868
 C           -0.06941684        3.71882826       -0.41028800
 C           -2.27653335        1.14438298       -0.04070528
 C           -2.05115922        2.51612561       -0.19146120
 C           -2.89517368       -0.98980383       -0.98085699
 C           -2.73310121        0.38299230       -1.12933736
 C           -1.82003446       -2.99314043       -1.59339402
 C           -0.54725365       -3.04595307       -2.28754436
 C           -2.56014912       -1.85477217       -2.10472665
 C            0.67499220       -1.13795601       -2.92793016
 C            0.55059377        0.24670663       -2.92014824
 C           -0.50459401       -1.94006724       -3.22577802
 C           -1.80703263       -1.29409535       -3.21477822
 C           -2.59580416        0.86883294       -2.43212025
 C           -0.58620842        0.78542316       -3.52807756
 C           -1.84450981        0.07890624       -3.38798718
 C            0.02021551        3.02236065       -2.63744573
 C           -0.75950788        3.78856120       -1.68093608
 C           -2.03217640        3.10755913       -1.51812372
 C           -0.90848780        2.18718959       -3.35853701
 C           -2.18999872        2.24039198       -2.65964655
