56
Modified xyz file
 C            1.34276255        0.07015800        3.90651598
 C            2.51405923       -0.08989478        3.07159161
 C            2.46785941       -1.42566092        2.50391300
 C            0.48426805       -1.08840433        3.69608600
 C            1.13926575       -1.96293900        2.74684987
 C           -0.84509203       -0.60754251        3.38816824
 C            0.53283443        1.25814267        3.73776429
 C           -0.84817779        0.83056785        3.60109592
 C            0.81753004        2.16470090        2.63765434
 C            2.74103808        0.84019399        1.97818329
 C            1.93329147        1.96995229        1.81696024
 C            2.94118099       -1.34646662        1.13123663
 C            3.10721851        0.06060160        0.80342347
 C            2.36413980       -2.18450236        0.19343298
 C            0.41966201       -2.46045584        1.66421931
 C            1.14368739       -2.88827405        0.55254307
 C           -1.51472613       -1.11588333        2.27926076
 C           -0.94135230       -2.14920063        1.52366678
 C           -2.53163778       -0.34198549        1.72337140
 C           -1.48278966        1.67789510        2.60418013
 C           -0.45549617        2.53248634        2.03074418
 C           -2.42185690        1.10676381        1.76327990
 C           -0.47980225        2.85342742        0.67396220
 C            1.95260251        2.60984392        0.58082239
 C            0.73216038        3.23023976        0.09809039
 C            2.74603372        0.54384965       -0.45412254
 C            2.53333716        1.91297437       -0.55519771
 C            2.18077767       -1.69883487       -1.15954761
 C            2.18298440       -0.32550506       -1.40495922
 C            0.45358578       -3.21445612       -0.68001734
 C            1.15872313       -2.53438539       -1.76335558
 C           -1.65397555       -2.67719434        0.44330993
 C           -0.93295909       -3.26718884       -0.67377473
 C           -3.09292156       -0.70193299        0.43654597
 C           -2.78390780       -1.93890302       -0.10169368
 C           -2.52508246        1.57996225        0.39666310
 C           -1.54254001        2.41048293       -0.13419177
 C           -3.04113091        0.48361030       -0.41184380
 C           -1.48185408        2.53032908       -1.52229352
 C            0.85858330        3.34929630       -1.33951294
 C            1.93668073        2.46026956       -1.75242951
 C           -0.29263555        3.05701291       -2.16001458
 C            1.49980592        0.17364430       -2.52797825
 C            1.40013054        1.54812893       -2.73576985
 C            0.12482021        2.09395755       -3.16310012
 C            0.45609843       -2.04722669       -2.85499046
 C            0.63560616       -0.65938488       -3.24700985
 C           -1.66342017       -2.96667235       -1.89147017
 C           -2.76015688       -2.07806056       -1.54417431
 C           -0.95106271       -2.37574176       -3.00890017
 C           -2.65423525        0.37336949       -1.74922958
 C           -1.97610444        1.43808687       -2.35047697
 C           -0.97330344        1.17254765       -3.37774853
 C           -0.66035713       -0.14438790       -3.67356741
 C           -2.64261258       -0.88197863       -2.36131084
 C           -1.65153715       -1.15943252       -3.38485432
