56
Modified xyz file
 C            1.44795111       -0.21271576        4.33212660
 C            0.63063842       -1.40817870        4.39532427
 C            1.10351642       -2.32093902        3.37017120
 C            2.43394997       -0.40651172        3.28278196
 C            2.13626399       -1.64253273        2.60001394
 C            2.44726448        0.79540721        2.49447490
 C            0.59503294        0.89033252        3.91743533
 C            1.28698747        1.59022784        2.86842020
 C           -0.72275341       -1.03280740        4.03306373
 C           -0.71156989        0.36247034        3.61422730
 C           -0.06203530       -2.82198381        2.66532855
 C           -1.20922969       -2.02601542        3.09313357
 C            0.08292682       -3.12591384        1.31815717
 C            2.04067815       -1.63999022        1.20598311
 C            1.25179580       -2.61917575        0.61156561
 C            2.71410903        0.70517864        1.13805292
 C            2.39534517       -0.49424195        0.46587836
 C            2.53279960        1.89747206        0.45993362
 C            0.55537549        2.15338872        1.82772732
 C            1.33213006        2.64776388        0.79070794
 C           -1.31834718        0.69784874        2.40209817
 C           -0.71251526        1.61968632        1.52041522
 C           -2.12771970       -1.60597614        2.14169087
 C           -2.28244437       -0.17598922        1.91683960
 C           -1.05547255       -2.98300430        0.42481672
 C           -2.15047276       -2.24535013        0.83637731
 C            0.89771252       -2.50359467       -0.78404176
 C           -0.52908359       -2.76560025       -0.90899436
 C            2.19068257       -0.47635225       -0.93336479
 C            1.45486984       -1.49549617       -1.55786911
 C            2.69192561        1.91434864       -0.96855173
 C            2.53404242        0.66347220       -1.66754165
 C            0.70835533        3.03279845       -0.44807747
 C            1.69905054        2.83339489       -1.49159887
 C           -1.27359744        1.83406122        0.23746487
 C           -0.60255557        2.65174505       -0.69677123
 C           -2.78518588       -0.00393538        0.57966960
 C           -2.73714453       -1.29519721       -0.08776554
 C           -2.42188946        1.11439040       -0.15095387
 C           -1.25197805       -2.03078142       -1.84763254
 C           -2.39169234       -1.31061712       -1.43743683
 C            0.86596793       -1.27081959       -2.80391444
 C           -0.53665034       -1.61830736       -2.97262721
 C            1.83095127        0.97174170       -2.90205627
 C            1.24956078        2.30700286       -2.76203201
 C            1.10639543       -0.03402353       -3.52433040
 C           -1.04199678        2.72470912       -2.02072105
 C           -0.08229945        2.50540445       -3.09862060
 C           -2.80696436        1.09289020       -1.48696072
 C           -2.80215053       -0.19433466       -2.16780983
 C           -2.27403240        2.07647797       -2.39173691
 C           -1.12260189       -0.68835532       -3.91558019
 C           -0.10964402        0.30085081       -4.25196820
 C           -0.69352453        1.61494366       -4.06460273
 C           -2.31758984        0.01310014       -3.51556401
 C           -2.08313806        1.43763302       -3.68475564
