56
Modified xyz file
 C            1.38275794       -0.32318282        3.85637793
 C            2.48137677       -0.48463008        2.91710539
 C            2.17077158       -1.63385899        2.08157172
 C            0.54575702       -1.50506603        3.77388589
 C            1.03368314       -2.31350073        2.67139664
 C           -0.79634444       -1.07055071        3.43172457
 C            0.52472522        0.84432711        3.73004542
 C           -0.78600039        0.37438908        3.31000841
 C            1.05299743        1.98299890        3.14012451
 C            3.00966025        0.65404330        2.32718568
 C            2.43317364        1.94092087        2.68339300
 C            3.23715116        0.66473848        0.89072600
 C            2.20835766       -1.51629589        0.69517454
 C            2.74105197       -0.36790543        0.10024889
 C            1.37631683       -2.34013430       -0.06598697
 C           -0.09556340       -2.61676499        1.81174029
 C           -1.23265487       -1.84448636        2.28417880
 C            0.11317944       -2.67770424        0.43813051
 C           -2.02864734       -1.22301509        1.32800842
 C           -1.40169930        0.93565915        2.19503343
 C           -2.28730078        0.14820755        1.45615485
 C            0.28036675        2.67299269        2.11921685
 C           -0.86902940        2.08408488        1.60017755
 C            2.55144795        2.81810888        1.53414385
 C            3.04617555        2.02435001        0.42405669
 C            1.21614178        3.26730008        1.18440312
 C            2.15569006        2.23578383       -0.70222325
 C            1.01861000        3.00807569       -0.22978335
 C            2.41903233       -0.09239215       -1.23043298
 C            1.89688956        1.16713635       -1.55374630
 C            1.57363753       -2.36257017       -1.44245345
 C            2.12722013       -1.16926284       -2.06064270
 C            0.49636635       -2.84085705       -2.28913150
 C           -1.00137390       -2.54986902       -0.39361086
 C           -2.09564514       -1.80666016        0.06103743
 C           -0.85018626       -2.81487264       -1.75164704
 C           -3.04051002       -1.32725674       -0.84159811
 C           -3.05026353        0.77793246        0.47871398
 C           -3.63715195       -0.03344328       -0.57169669
 C           -1.24460457        2.39597339        0.29174169
 C           -0.24491415        2.62185472       -0.66386651
 C           -2.49670646        1.97125442       -0.13947400
 C            0.75630819        1.23885411       -2.35640786
 C           -0.33796961        1.98205684       -1.90175086
 C            1.38734403       -0.92034616       -3.28406473
 C            0.51119119       -2.05547018       -3.50982049
 C            0.58937971        0.28812479       -3.35919527
 C           -1.70096794       -2.14433062       -2.72214225
 C           -2.78601336       -1.40739177       -2.27131904
 C           -0.82921717       -1.54150675       -3.71809097
 C           -0.74834652       -0.09094256       -3.78591303
 C           -3.60839302        0.74246190       -1.79817711
 C           -2.74620497        1.88708081       -1.56664089
 C           -1.60095364        1.77574879       -2.44913761
 C           -2.98670358       -0.07618513       -2.82166627
 C           -1.83339548        0.64599377       -3.33508595
