56
Modified xyz file
 C            1.34968877        0.23835289        4.07165907
 C            0.56944558       -0.98428667        4.11011621
 C            1.34249775       -2.02066133        3.45204048
 C            2.48453546        0.01086649        3.19105592
 C            2.50652019       -1.39036011        2.84430243
 C            2.40850618        0.98069713        2.11871103
 C            0.52480186        1.27126665        3.46771795
 C            1.26800519        1.83791536        2.36778226
 C           -0.75996040       -0.68097177        3.60981116
 C           -0.77580651        0.70945223        3.17771586
 C           -1.42057295       -1.62393591        2.83448212
 C            0.69861407       -2.83233181        2.43275627
 C           -0.67918173       -2.74144248        2.25476742
 C            2.52059654       -1.75509100        1.43998555
 C            1.56972078       -2.83805180        1.26823513
 C            2.63418132        0.59235401        0.79901897
 C            2.60789501       -0.77191396        0.45122268
 C            2.32949954        1.53159008       -0.18674356
 C            0.57404652        2.27806857        1.25241054
 C            1.31086155        2.45684571        0.09093400
 C           -1.38747348        1.03683738        1.96711014
 C           -0.79164674        1.98872163        1.12297591
 C           -2.35997490       -1.16144946        1.83034780
 C           -2.36803706        0.18357206        1.46013546
 C           -1.25105791       -3.01902459        0.94512937
 C           -2.43126332       -2.18357924        0.79926383
 C            1.02756736       -3.05018194        0.00749201
 C           -0.41074649       -3.21776152       -0.14537102
 C            2.32109871       -1.14047481       -0.86996508
 C            1.49493185       -2.23973860       -1.10551066
 C            2.61947352        1.18908314       -1.50125240
 C            2.44993651       -0.19463979       -1.88180116
 C            2.12984243        2.00946920       -2.59332333
 C            0.70240626        3.17084145       -0.93071487
 C            1.22774628        3.09199077       -2.27889964
 C           -1.44570811        2.37517062       -0.05683372
 C           -0.74777921        3.13933717       -0.99856685
 C           -3.05573287        0.54819660        0.30974595
 C           -2.59603148        1.69061310       -0.46069736
 C           -2.86453996       -1.81643195       -0.46749069
 C           -3.43877368       -0.49343026       -0.62952323
 C           -0.78441015       -2.69251198       -1.45121370
 C            0.40019640       -2.10982723       -2.05625817
 C           -2.00875186       -2.06632359       -1.62136773
 C            1.48601062       -0.20766632       -2.97060447
 C            1.45309691        1.12675366       -3.53364494
 C            0.31087306       -0.94362471       -2.81456272
 C            0.10321099        3.00622078       -3.19221408
 C           -1.11403903        3.03263816       -2.39943119
 C            0.17061355        1.71032843       -3.84842037
 C           -2.80507598        1.38240655       -1.87443176
 C           -3.11219294       -0.03056224       -1.96306050
 C           -2.09724639       -0.91612976       -2.50428218
 C           -0.94286691       -0.34661991       -3.04496484
 C           -1.91929671        1.90257071       -2.80300325
 C           -1.02825397        0.97686417       -3.49277203
