56
Modified xyz file
 C            1.63235715        0.10011349        3.81781129
 C            0.78117016       -1.06891209        3.69210713
 C            1.37300752       -1.92953466        2.68916687
 C            2.55021472        0.10132964        2.68983892
 C            2.38971415       -1.15193909        1.99457741
 C            2.33801222        1.32396012        1.94869049
 C            0.79099011        1.27168911        3.68409240
 C            1.43498673        2.15456655        2.73201702
 C           -0.58242157       -0.62171898        3.48989181
 C           -0.55944195        0.82869492        3.38140838
 C           -1.38301334       -1.34860394        2.62480396
 C            0.54439827       -2.73714973        1.91703867
 C           -0.84234706       -2.54295792        1.98675411
 C            1.09342332       -3.23092907        0.73845514
 C            2.38493107       -1.16919230        0.60422148
 C            2.03077248       -2.37945796        0.01965152
 C            2.16586566        1.26736989        0.56410320
 C            2.15975266        0.02572218       -0.10428911
 C            1.66640580        2.40358161       -0.07692731
 C            0.62125830        3.03559886        2.04222744
 C            0.97364194        3.35652429        0.67604381
 C           -1.23290307        1.46804752        2.33954667
 C           -0.80821418        2.75419042        2.01301480
 C           -2.16093758       -0.63992694        1.62244967
 C           -1.89471210        0.69899119        1.36989686
 C           -1.67550360       -2.79141294        0.81775597
 C           -2.36427841       -1.54384841        0.50563325
 C            0.23566078       -3.87441993       -0.23681035
 C           -1.18217824       -3.57121872       -0.21868263
 C            1.68374634       -2.42907458       -1.38310177
 C            0.74693901       -3.53201989       -1.55170845
 C            1.85166169       -0.02505278       -1.47519612
 C            1.48406697       -1.23778626       -2.07186975
 C            1.57318923        2.41832956       -1.46446214
 C            1.66757343        1.16206455       -2.18756127
 C            0.54416143        3.22149671       -2.10929254
 C           -0.21294420        3.98343541        0.12535552
 C           -1.34241669        3.39595540        0.82870498
 C           -0.47024858        3.85356961       -1.29046255
 C           -2.09841583        1.20168907        0.07868936
 C           -2.05306136        2.57713289       -0.12811342
 C           -1.69503358        3.07646917       -1.43620288
 C           -2.34189704       -1.05068835       -0.79812575
 C           -2.15591282        0.32575586       -1.02039184
 C           -1.57721093       -3.25149149       -1.57878445
 C           -0.39489089       -3.35670784       -2.42347400
 C           -2.19004856       -1.96035527       -1.84572938
 C            0.65658531       -1.22844497       -3.19638741
 C           -0.39977541       -2.21831558       -3.31679558
 C           -1.64889575       -1.50561660       -3.10525322
 C            0.69170370        1.19981818       -3.27102797
 C           -0.15138016        2.35747796       -3.03721418
 C           -1.47856186        2.11909099       -2.49560337
 C           -1.86371465        0.79508227       -2.31679491
 C            0.05048611        0.01887769       -3.60427191
 C           -1.35631684       -0.09984886       -3.24941388
