56
Modified xyz file
 C            1.41582109        0.01268605        3.99533091
 C            0.60955072       -1.17012819        3.74814105
 C            1.42915263       -2.11066789        3.02399795
 C            2.60299323       -0.08574543        3.16315167
 C            2.66003538       -1.42845747        2.63941713
 C            2.57548001        1.01584359        2.22485801
 C            0.65547968        1.16636014        3.54558010
 C            1.44516345        1.86923566        2.55993302
 C           -0.63671617       -0.73897570        3.14818706
 C           -0.65617559        0.71179076        3.14630407
 C           -1.14619773       -1.39637149        2.02898204
 C            0.88938729       -2.71791084        1.82323927
 C           -0.39272419       -2.38922218        1.37425652
 C            2.81740253       -1.61014436        1.20802488
 C            1.97194372       -2.73528747        0.86130155
 C            2.86202107        0.80399249        0.87687034
 C            2.84818074       -0.50453214        0.35039911
 C            2.62519563        1.88497878        0.03449708
 C            0.78473498        2.51120568        1.51610726
 C            1.52942196        2.78127815        0.36852543
 C           -1.26826032        1.33809132        2.06991385
 C           -0.60789503        2.38580721        1.40997007
 C           -2.17659149       -0.76457382        1.33364721
 C           -2.26204071        0.63469075        1.39298359
 C           -2.79580906       -1.46931226        0.30859818
 C           -0.74614414       -2.77485690        0.07378472
 C           -2.00599664       -2.43699919       -0.42375977
 C            1.65046742       -2.92347009       -0.46831184
 C            0.25984252       -3.16162905       -0.81611073
 C            2.60772166       -0.72446302       -1.01671562
 C            2.16259729       -1.97659238       -1.44262680
 C            2.62642539        1.69310829       -1.39662979
 C            2.52889767        0.34585871       -1.90514739
 C            0.86097447        3.15822460       -0.86688656
 C            1.52486096        2.46251253       -1.95600140
 C           -1.25548442        3.01830315        0.34885262
 C           -0.52231279        3.24940645       -0.88419828
 C           -3.09321116        1.34184631        0.53020334
 C           -2.59261006        2.58148872       -0.02760430
 C           -3.64823119       -0.78301497       -0.64151743
 C           -3.79427952        0.65187087       -0.53318565
 C           -2.17452736       -2.15183565       -1.84660270
 C           -3.13144444       -1.06896624       -1.96852055
 C            0.12663073       -2.83779154       -2.22476347
 C            1.29476372       -2.06014546       -2.60616879
 C           -1.05279907       -2.12097174       -2.66024534
 C            1.50473171        0.34563031       -2.94169768
 C            0.74395346        1.57254268       -2.80040792
 C            0.83409405       -0.83120824       -3.22634522
 C           -0.61956213       -0.83933018       -3.20495336
 C           -1.25411451        2.56845791       -1.93975237
 C           -2.61956086        2.44242607       -1.47674500
 C           -3.34920941        1.23570576       -1.78993175
 C           -2.67733883        0.18901513       -2.53276798
 C           -0.63941439        1.51994040       -2.63004371
 C           -1.32927394        0.32030544       -2.87741662
