56
Modified xyz file
 C            1.34617902        0.03493593        4.10262914
 C            0.51798015       -1.14307050        3.90485224
 C            1.26098473       -2.07826743        3.09375256
 C            2.51115655       -0.09919706        3.24597369
 C            2.52606102       -1.44937188        2.73822322
 C            2.48920782        0.99024156        2.28955039
 C            0.58903202        1.18980038        3.64716629
 C            1.32705230        1.82067606        2.58090628
 C           -0.76928532       -0.69645158        3.42091885
 C           -0.75688996        0.75668133        3.36133412
 C           -1.39910582       -1.37707642        2.38287600
 C            0.65387013       -2.56921819        1.86678275
 C           -0.62744403       -2.16160101        1.50345396
 C            2.71265685       -1.63708446        1.31617172
 C            1.69131504       -2.56368188        0.85676075
 C            2.82241017        0.75908284        0.95244135
 C            3.03802006       -0.55544614        0.49555320
 C            2.48500879        1.76304008        0.04506140
 C            0.62506856        2.36737011        1.51159982
 C            1.35089201        2.61907017        0.35126235
 C           -1.45294198        1.35949450        2.31721828
 C           -0.77189336        2.21800132        1.43542165
 C           -2.55516885       -0.77555224        1.90122092
 C           -2.58057265        0.67776710        1.86210010
 C           -3.15221564       -1.26652002        0.68067449
 C           -0.99927661       -2.28229346        0.15811890
 C           -2.31803306       -2.03214935       -0.21531153
 C            1.33628213       -2.51129587       -0.48544143
 C           -0.02267733       -2.47091378       -0.83165756
 C            3.05289053       -0.81818007       -0.87393123
 C            2.27668313       -1.95120215       -1.34817325
 C            2.47356207        1.49922610       -1.38110671
 C            2.87006322        0.25533026       -1.83507597
 C            0.66506753        2.92249103       -0.88939378
 C            1.28572237        2.13034111       -1.94455594
 C           -1.45046812        2.73338820        0.32694626
 C           -0.70897055        3.09042388       -0.87366212
 C           -3.23761686        1.08445715        0.63513497
 C           -3.66502602       -0.12279771       -0.05702225
 C           -2.71131681        2.13995333       -0.09330365
 C           -2.60825466       -1.57817672       -1.56381784
 C           -3.31565123       -0.30927217       -1.45606294
 C           -0.39104717       -2.39138386       -2.17865698
 C           -1.64167425       -1.74824764       -2.54251393
 C            1.93801625       -1.70689849       -2.73354876
 C            2.21950549       -0.30563304       -3.00681586
 C            0.58715830       -1.98395750       -3.16946365
 C            0.49544266        1.44532959       -2.87268070
 C           -1.31986537       -0.64529525       -3.43826346
 C            0.99265487        0.30076823       -3.49322585
 C            0.07752531       -0.78240551       -3.80954165
 C           -1.47475053        2.65432481       -2.02465439
 C           -2.71614408        2.07180672       -1.54581309
 C           -2.89099459        0.78472617       -2.20223175
 C           -0.86996219        1.71875598       -2.95666997
 C           -1.81022210        0.62515742       -3.16150944
