56
Modified xyz file
 C            1.60745222        0.02141227        3.74789088
 C            0.77767104       -1.16468983        3.66340047
 C            1.30205887       -2.01066362        2.60626991
 C            2.59421645       -0.05137184        2.68419583
 C            2.38585370       -1.28186419        1.95781119
 C            2.53278601        1.18612161        1.94469917
 C            0.75640506        1.16732076        3.47730862
 C            1.40219464        1.95303591        2.45143358
 C           -0.60124866       -0.73082637        3.56568925
 C           -0.57813099        0.67946174        3.20892200
 C           -1.48556291       -1.55893752        2.89892907
 C            0.39896843       -2.72389719        1.81813074
 C           -0.95399909       -2.70272069        2.16895767
 C            0.77547038       -3.05894206        0.51590143
 C            2.44351429       -1.26368482        0.56852601
 C            1.87478234       -2.33854934       -0.10770015
 C            2.73318369        1.16534033        0.56661914
 C            2.69816373       -0.06278349       -0.11780387
 C            2.39374989        2.33359736       -0.11413053
 C            0.61776453        2.61849208        1.51774421
 C            1.30954332        3.13330391        0.42692128
 C           -1.21445993        1.10343432        2.04190546
 C           -0.72193886        2.21906838        1.35246972
 C           -2.47221658       -0.95381930        2.02803775
 C           -2.19778263        0.29167095        1.45757523
 C           -1.96544072       -3.07876158        1.19502223
 C           -2.97732345       -2.03101348        1.19906254
 C           -0.22776477       -3.30877506       -0.51230806
 C           -1.57461127       -3.31074921       -0.18190281
 C            1.60081655       -2.24491673       -1.52910072
 C            0.21864997       -2.65875820       -1.73858091
 C            2.72143674       -0.07072205       -1.51540044
 C            2.10665048       -1.17174246       -2.24190824
 C            2.27065304        2.33706011       -1.55973974
 C            2.44591656        1.15139305       -2.25514817
 C            0.58687926        3.72819644       -0.67463892
 C            1.15948772        3.21366622       -1.90863093
 C           -1.47547806        2.72429722        0.29540530
 C           -0.84401483        3.54057502       -0.72830508
 C           -2.74001188        0.62483196        0.20662754
 C           -2.41223076        1.84419591       -0.37450549
 C           -3.32157964       -1.74249265       -0.17337049
 C           -2.50751896       -2.59313209       -1.02845332
 C           -3.17635765       -0.38284518       -0.65208500
 C           -0.65533046       -1.85019585       -2.47442875
 C           -1.99406773       -1.76677844       -2.10844867
 C           -2.60489844       -0.45288107       -1.98481667
 C            1.29407326       -0.60788772       -3.30075973
 C            1.52406409        0.82462756       -3.33017515
 C           -0.13951270       -0.83504749       -3.27364367
 C            0.07108608        2.70170851       -2.72676991
 C           -1.16972119        2.96342389       -2.02351884
 C           -2.09499386        1.86985757       -1.79654534
 C           -1.92759985        0.66156841       -2.47266550
 C            0.23130958        1.48851424       -3.38284168
 C           -0.80100604        0.46327383       -3.27712939
