56
Modified xyz file
 C            1.48515837       -0.22844034        4.28525163
 C            0.62129577       -1.38903826        4.18902499
 C            1.16417686       -2.26896708        3.16584758
 C            2.58246929       -0.41501331        3.35198122
 C            2.39729309       -1.68511781        2.67636757
 C            2.67889336        0.78786441        2.54741964
 C            0.72580859        0.92924789        3.83968849
 C            1.52252565        1.62158236        2.85152422
 C           -0.67528891       -0.93290616        3.72262423
 C           -0.59645970        0.48753895        3.45000163
 C            0.10063051       -2.55157268        2.21655261
 C           -1.06831323       -1.79629467        2.63329666
 C            0.38949205       -2.61083806        0.84933056
 C            2.66521606       -1.75157476        1.31699505
 C            1.69800258       -2.37627108        0.42031137
 C            3.08096463        0.69003074        1.21764990
 C            3.19255480       -0.57871073        0.63219616
 C            2.83473830        1.79418258        0.40638807
 C            0.87877045        2.25019761        1.79079580
 C            1.67870306        2.62045907        0.71367616
 C           -1.12078257        0.94837217        2.24429206
 C           -0.48501036        1.99978436        1.57522709
 C           -1.85099679       -1.26550261        1.62583315
 C           -1.99961180        0.12204229        1.53311889
 C           -0.66393270       -2.43304861       -0.05744128
 C           -1.88709311       -1.97780624        0.44517626
 C           -0.37584264       -2.24693895       -1.41512283
 C            1.92891009       -1.83244755       -0.90985812
 C            2.91187227       -0.76550617       -0.78649059
 C            0.85144224       -1.68188956       -1.77824898
 C            2.91426421        1.66108043       -1.03454038
 C            2.81800403        0.33826312       -1.61815764
 C            1.07373721        3.03832636       -0.53798678
 C            1.87141956        2.49113913       -1.61687805
 C           -1.11028288        2.54272155        0.45631646
 C           -0.30629654        3.02621287       -0.65707466
 C           -2.66782630        0.63414059        0.41293408
 C           -2.27736785        1.87366576       -0.09932692
 C           -2.89895594       -1.64584400       -0.43531041
 C           -3.34502253       -0.26333137       -0.41906893
 C           -1.42792259       -2.24397778       -2.32843189
 C           -2.76898241       -2.05546236       -1.81438677
 C           -1.30379268       -1.43074399       -3.51947157
 C            0.90688475       -0.70094456       -2.78012077
 C            1.77506895        0.37611811       -2.62718819
 C            1.21068921        1.71576008       -2.64765790
 C           -0.21203162       -0.48456518       -3.57758651
 C           -0.92027774        2.55023884       -1.89109566
 C           -2.26150221        2.10190369       -1.54067027
 C           -0.16310540        1.84158780       -2.83418830
 C           -0.78437809        0.85588082       -3.59702104
 C           -3.64845475        0.11354572       -1.78949665
 C           -3.44179409       -1.05812821       -2.62638709
 C           -2.54084545       -0.68752496       -3.70037424
 C           -2.92902027        1.22379477       -2.38177910
 C           -2.22779479        0.72272499       -3.54846000
