56
Modified xyz file
 C            1.50091328        0.00760010        3.90007730
 C            0.69982684       -1.18667693        3.70151394
 C            1.37303597       -2.02232748        2.72221920
 C            2.63207654       -0.06496365        2.99259835
 C            2.64868799       -1.38754392        2.40610180
 C            2.57207610        1.07934774        2.10307996
 C            0.69125681        1.14813372        3.50939578
 C            1.38297294        1.84802395        2.44850301
 C           -0.66032194       -0.76679421        3.43399302
 C           -0.65237186        0.67750102        3.24721367
 C           -1.42551631       -1.53726673        2.57336921
 C            0.62463437       -2.62376321        1.70496828
 C           -0.76747570       -2.51298996        1.71008212
 C            1.26481895       -3.02324129        0.53282293
 C            3.16308669       -1.52500462        1.12703045
 C            2.62269381       -2.57371826        0.28705195
 C            2.90021381        0.91460173        0.75608386
 C            3.32627785       -0.33496595        0.29471430
 C            2.41963825        1.84998762       -0.15760662
 C            0.63493352        2.40583828        1.41923416
 C            1.29648490        2.68767423        0.22873964
 C           -1.34902650        1.21844943        2.16907886
 C           -0.75501452        2.23464791        1.40421380
 C           -2.44901783       -0.88318334        1.77954706
 C           -2.43308562        0.50385525        1.65140400
 C           -1.49206194       -2.54033776        0.44588489
 C           -2.66597530       -1.70002344        0.59795569
 C            0.54574905       -2.96913590       -0.73387784
 C           -0.77811742       -2.53049772       -0.74972249
 C            2.70348070       -2.12752539       -1.09044117
 C            3.07269806       -0.72272817       -1.08713626
 C            1.47607554       -2.51681888       -1.75727559
 C            2.23004891        1.47652970       -1.55106529
 C            2.39572609        0.14740833       -1.93736390
 C            0.53688483        3.00882167       -0.96736974
 C            1.12527702        2.27156901       -2.07591783
 C           -1.49244328        2.84160858        0.39016301
 C           -0.84222695        3.14235805       -0.87506972
 C           -3.23470361        1.08545264        0.67508404
 C           -2.82361322        2.34793419        0.09469309
 C           -3.22407053       -1.10807997       -0.52333546
 C           -3.73728257        0.24646371       -0.40091979
 C           -1.27345966       -1.83008414       -1.85782189
 C           -2.51990886       -1.20063192       -1.79178642
 C            1.00398561       -1.70491046       -2.77351903
 C            1.60087557       -0.38857762       -2.95249026
 C           -0.42766516       -1.54117028       -2.92847056
 C            0.31097156        1.75271462       -3.07454286
 C            0.61300456        0.44363106       -3.61792293
 C           -0.62782771       -0.31380187       -3.67900054
 C           -1.69063743        2.63870286       -1.94418820
 C           -2.95724391        2.24529679       -1.35089313
 C           -3.49996748        0.93537758       -1.65729042
 C           -2.74009820        0.04596890       -2.51603792
 C           -1.13545558        1.86472667       -2.96092531
 C           -1.71381704        0.56653771       -3.29482621
