56
Modified xyz file
 C            1.47736346        0.09299732        4.02018260
 C            0.67751595       -1.08092452        3.72065434
 C            1.34245022       -1.82672428        2.66829449
 C            2.56967333        0.14173557        3.06493993
 C            2.49087065       -1.04455622        2.23063290
 C            2.54694088        1.44291806        2.42622716
 C            0.64571236        1.26019755        3.79152150
 C            1.37428131        2.15956176        2.91517255
 C           -0.68610985       -0.64825759        3.49502988
 C           -0.66986518        0.80146138        3.37249534
 C           -1.45771256       -1.37800712        2.60982672
 C            0.56734325       -2.47394878        1.70769981
 C           -0.82483004       -2.41787141        1.80553139
 C            1.15358092       -2.75896003        0.47849220
 C            2.75237318       -0.94304702        0.86592518
 C            2.28036247       -1.95218312        0.03344733
 C            2.89074879        1.52226908        1.08216959
 C            3.08266291        0.29664107        0.31474886
 C            2.22721845        2.48901708        0.22048630
 C            0.63868091        2.94351266        2.03631700
 C            1.17335109        3.24284552        0.71834129
 C           -1.27476379        1.41805724        2.27366252
 C           -0.77665015        2.65367351        1.86340292
 C           -2.36070924       -0.66586675        1.73012465
 C           -2.09916648        0.66781973        1.41807910
 C           -1.64871217       -2.59135109        0.61663672
 C           -2.70938120       -1.59275520        0.67398587
 C            0.32527910       -3.04816561       -0.68246765
 C           -1.05805362       -2.89577928       -0.60853528
 C            2.11738154       -1.70756326       -1.39136612
 C            1.04891620       -2.58160454       -1.85704960
 C            2.74505383        0.58904545       -1.07057522
 C            2.14325338        1.91378218       -1.11613375
 C            2.23468725       -0.41062719       -1.89058931
 C            1.02125226        2.12734314       -1.92021492
 C            0.04542467        3.53555804       -0.14482860
 C           -1.16922161        3.19414659        0.58273773
 C           -0.03445985        2.90585700       -1.45141365
 C           -2.51224620        1.18153433        0.17587918
 C           -1.99051994        2.38402736       -0.28717552
 C           -1.39636632        2.42159599       -1.61331628
 C           -3.21956295       -1.08842773       -0.50778729
 C           -3.07966546        0.33387164       -0.77647338
 C           -1.78998743       -2.69217492       -1.77759318
 C           -2.93741921       -1.80275687       -1.73981471
 C            0.34682031       -2.25545208       -3.00824937
 C           -1.09224803       -2.44500760       -3.02871992
 C            1.48604940       -0.02782688       -2.99949251
 C            0.76911538        1.23746017       -2.96020558
 C            0.63649073       -0.99788550       -3.67015034
 C           -1.64060271        1.36414966       -2.48439609
 C           -2.68088396        0.48562848       -2.16897872
 C           -2.77105208       -0.82149998       -2.79800764
 C           -1.69285417       -1.27411214       -3.65170027
 C           -0.60889306        0.96289876       -3.33677931
 C           -0.62891691       -0.34626964       -3.97063086
