56
Modified xyz file
 C            1.06030009        0.00399326        4.04437940
 C            2.30771570       -0.29257086        3.36333099
 C            2.21339977       -1.65329341        2.86280069
 C            0.21108623       -1.17252942        3.92900484
 C            0.82094892       -2.04891089        2.94988317
 C           -1.13906059       -0.71900084        3.70360153
 C            0.27377132        1.15048721        3.62256179
 C           -1.11479698        0.73525367        3.60947268
 C            0.74040187        1.97405266        2.60481974
 C            2.73050166        0.54867743        2.25861644
 C            2.02216191        1.70388755        1.96204792
 C            2.84983201       -1.69623927        1.56356227
 C            3.15193417       -0.32188868        1.17334318
 C            2.30996890       -2.54673894        0.61190189
 C            0.14270747       -2.37813207        1.77072366
 C            0.89050286       -2.87741676        0.70321762
 C           -1.84389553       -1.19704107        2.53314032
 C           -1.15633605       -1.89615206        1.53606727
 C           -1.95885785        1.09952670        2.48122989
 C           -2.70133387       -0.09948659        2.13779874
 C           -0.18043246        2.45473040        1.58145044
 C           -1.44452199        1.88899946        1.44872920
 C            1.91478731        2.12805033        0.58019038
 C            0.60063633        2.72667683        0.39401718
 C            2.96072379        0.07096108       -0.15563425
 C            2.44990965        1.34671570       -0.44423580
 C            2.60487926       -2.27290511       -0.77732795
 C            2.96551088       -0.91633182       -1.14322859
 C            0.33763521       -2.83372084       -0.63884743
 C            1.43645118       -2.63638850       -1.55850189
 C           -1.67980259       -1.87919575        0.23490176
 C           -0.84521632       -2.14229691       -0.85570458
 C           -3.28337696       -0.15763633        0.88935807
 C           -2.91253225       -1.26150941        0.02483094
 C           -2.04270691        1.81973761        0.18481753
 C           -3.17713691        1.01357580        0.04944172
 C            0.00857444        2.63299976       -0.85715166
 C           -1.33511851        2.23752822       -0.95907898
 C            2.07624641        1.67051649       -1.74943324
 C            0.86955560        2.46070453       -1.93997481
 C            2.34833484       -0.65718758       -2.42745034
 C            1.28668855       -1.64199473       -2.59956829
 C            2.09853215        0.65516988       -2.79080255
 C           -1.06823311       -1.51450341       -2.09229483
 C            0.01196797       -1.19523769       -2.93299464
 C           -3.29284900       -0.86035436       -1.31818517
 C           -3.59911918        0.56473164       -1.25930606
 C           -2.34442098       -1.04366266       -2.39586382
 C           -1.92682014        2.12407290       -2.22363170
 C           -3.01294829        1.18622132       -2.42075087
 C           -2.49032886        0.11635683       -3.25401032
 C            0.34297118        2.15018217       -3.25044881
 C            0.97851698        0.91613753       -3.68085411
 C           -0.06660342       -0.08444600       -3.77314529
 C           -1.08622076        1.97985898       -3.39681022
 C           -1.31448507        0.63696603       -3.91400508
