56
Modified xyz file
 C            1.40739980        0.05957815        4.17525050
 C            0.64208849       -1.13115363        3.85642713
 C            1.51966265       -2.02626637        3.14150061
 C            2.59551294        0.04907570        3.33633443
 C            2.70322652       -1.26687288        2.75335083
 C            2.51123551        1.19365790        2.45112205
 C            0.61344257        1.21243053        3.78814485
 C            1.45113254        2.05258743        2.96221564
 C           -0.58398183       -0.71209317        3.20793730
 C           -0.63555375        0.73997971        3.21856072
 C           -1.02587383       -1.36834794        2.06702273
 C            1.02102443       -2.66512382        1.93818831
 C           -0.27710281       -2.40951437        1.49149174
 C            2.81752164       -1.38218260        1.31248429
 C            2.09678205       -2.59207770        0.97273460
 C            2.64662276        1.03104447        1.06634598
 C            2.64772988       -0.25466509        0.50164238
 C            2.34928943        2.12798486        0.26259734
 C            0.81977854        2.89470634        2.06455868
 C            1.51053649        3.17347283        0.82312828
 C           -1.14878548        1.40211792        2.09947226
 C           -0.57119099        2.61369091        1.71573551
 C           -1.96912814       -0.71710554        1.28730024
 C           -1.89303280        0.67674441        1.16157270
 C           -2.62384009       -1.46678935        0.32664170
 C           -0.61460480       -2.84700942        0.20293684
 C           -1.87926974       -2.53748196       -0.30509637
 C            1.77695764       -2.80015733       -0.35343222
 C            0.41675355       -3.19547583       -0.67490646
 C            2.25301294       -0.44718321       -0.83145979
 C            2.11082159       -1.75365787       -1.30015984
 C            1.92712255        1.92245906       -1.11276008
 C            1.75800940        0.62477504       -1.58696665
 C            0.50581438        3.50967061       -0.16140622
 C           -0.78914545        3.11404402        0.36961193
 C            0.92631476        2.93473963       -1.42374980
 C           -2.32222591        1.30065300       -0.01944695
 C           -1.66051734        2.44529500       -0.48318888
 C           -3.40647954       -0.79212404       -0.68455649
 C           -3.21618105        0.63272213       -0.85964750
 C           -2.08908481       -2.42183261       -1.74302713
 C           -3.13887427       -1.44117489       -1.95861853
 C            0.26723378       -2.95294814       -2.09850983
 C            1.31011814       -2.00776244       -2.47925002
 C           -0.99592913       -2.44946707       -2.59932363
 C            0.92004455        0.40229277       -2.69203604
 C            0.66998361       -0.89239531       -3.13650469
 C           -0.69699945       -1.29301290       -3.43397496
 C           -0.06811411        2.61753206       -2.33205936
 C           -1.43911811        2.59923919       -1.85224418
 C            0.08119114        1.42239484       -3.13568357
 C           -3.17558515        0.87663249       -2.29062310
 C           -2.93825739       -0.39877624       -2.94804286
 C           -1.66056336       -0.30999496       -3.63786747
 C           -2.20643588        1.81944221       -2.80163505
 C           -1.25048905        1.08368344       -3.61813186
