56
Modified xyz file
 C            1.42354213       -0.05644401        4.60924291
 C            0.61893089       -1.26096671        4.65315642
 C            1.33356913       -2.28635323        3.91418325
 C            2.54471473       -0.29749413        3.71093158
 C            2.46269769       -1.65825089        3.24310869
 C            2.53644842        0.75510172        2.72103971
 C            0.61152990        0.99068334        4.01413811
 C            1.43387659        1.65162669        3.03196238
 C           -0.62403648       -0.98799631        3.94625977
 C           -0.62629725        0.40711869        3.54727604
 C            0.44283624       -2.77475337        2.88160367
 C           -0.77738989       -1.99050937        2.91101771
 C            2.31883261       -1.89008484        1.81302185
 C            1.18657767       -2.78290126        1.63904930
 C            2.76278347        0.45855771        1.37307695
 C            2.47980898       -0.83635012        0.89679256
 C            2.61648741        1.53519203        0.50623154
 C            0.81589233        2.24846726        1.94604077
 C            1.67798070        2.56796684        0.91135183
 C           -1.04533993        0.72404338        2.25701137
 C           -0.48639316        1.83296633        1.60714656
 C           -1.29715240       -1.60091296        1.68178478
 C           -1.65818578       -0.26703850        1.48543563
 C            0.46757063       -2.64277610        0.46818825
 C           -0.88634496       -2.31593425        0.56236035
 C            1.95739969       -1.01662653       -0.40273660
 C            1.15113028       -2.13888602       -0.62519145
 C            2.38572327        1.29800003       -0.90200812
 C            1.90142516        0.06190090       -1.30232353
 C            1.12890887        3.15970919       -0.27689786
 C            1.74513837        2.49118418       -1.41074434
 C           -1.02312401        2.20494622        0.36666524
 C           -0.29914396        3.06545583       -0.46137021
 C           -2.15689610        0.08146020        0.23187904
 C           -2.01456859        1.40219835       -0.20760008
 C           -1.55844077       -2.08401339       -0.63275328
 C           -2.35786745       -0.93812930       -0.70692173
 C            0.51935515       -2.29849738       -1.84681006
 C           -0.91027921       -2.51465651       -1.78686381
 C            1.13837050       -0.03651085       -2.47976872
 C            0.71720310       -1.30321785       -2.87405300
 C            0.71304128        2.33882662       -2.41008963
 C           -0.48805945        2.98316597       -1.89321406
 C            0.57205951        1.11849146       -3.06220336
 C           -2.54036990        1.76308612       -1.45027856
 C           -1.70838376        2.53442477       -2.36552881
 C           -3.02181404       -0.64074840       -1.89631813
 C           -3.23224027        0.75344746       -2.23532595
 C           -1.45096433       -2.16412240       -3.08110116
 C           -0.39518999       -1.45819253       -3.79685559
 C           -2.63561094       -1.33547971       -3.11525811
 C           -0.52167369        1.01557249       -3.92580214
 C           -1.69695723        1.81613939       -3.62449536
 C           -2.84946366        0.93942933       -3.62528465
 C           -0.98258501       -0.27757127       -4.38147598
 C           -2.41906251       -0.34374427       -4.15068196
