56
Modified xyz file
 C            1.46472820        0.05776035        3.93202590
 C            0.60842084       -1.09394699        3.70948977
 C            1.23213140       -1.91990748        2.69454105
 C            2.49049687        0.05245044        2.90208168
 C            2.38407531       -1.19116608        2.18275475
 C            2.37580035        1.27925595        2.14933365
 C            0.66099543        1.24923983        3.73734962
 C            1.37124955        2.10602452        2.81046963
 C           -0.73783667       -0.61652462        3.47557829
 C           -0.68659641        0.83543595        3.38776048
 C           -1.53244516       -1.31252856        2.58063160
 C            0.43224539       -2.60766889        1.77966174
 C           -0.94945393       -2.38062847        1.77089528
 C            1.04703326       -3.06287476        0.61310882
 C            2.59113170       -1.20388345        0.81194321
 C            2.26975383       -2.39948079        0.19095681
 C            2.41193345        1.23222393        0.75281755
 C            2.46240267       -0.00402700        0.08223969
 C            2.01376076        2.36954989        0.05865113
 C            0.62076300        2.97085152        2.03118882
 C            1.13851308        3.31923587        0.72395328
 C           -1.33306618        1.48976571        2.33747220
 C           -0.80260896        2.69667886        1.86769132
 C           -2.44518826       -0.57204436        1.73137117
 C           -2.28834783        0.80632291        1.57668515
 C           -1.68474132       -2.42197478        0.51078812
 C           -2.71891228       -1.40430424        0.57021321
 C            0.25374220       -3.26434997       -0.58651359
 C           -0.99548627       -2.65430403       -0.67684531
 C            2.35626592       -2.49220225       -1.24458747
 C            1.17824288       -3.21367760       -1.70141828
 C            2.26719265       -0.04966991       -1.31403975
 C            2.42272480       -1.26105157       -1.99504446
 C            1.56091048        2.25181150       -1.31066861
 C            1.73166970        1.05659765       -1.99088607
 C            0.00587858        3.57379436       -0.14881794
 C           -1.20152556        3.21206732        0.56709472
 C            0.27854049        2.93541025       -1.42209910
 C           -2.87491721        1.43328260        0.47924296
 C           -2.21645875        2.57557314       -0.12836956
 C           -3.15052579       -0.80781460       -0.60140564
 C           -3.41344579        0.62021430       -0.59921907
 C           -1.40448746       -2.02321316       -1.86487858
 C           -2.48554551       -1.13696474       -1.85033042
 C            0.74794701       -2.59489043       -2.93142452
 C            1.67160120       -1.50502865       -3.21259729
 C           -0.59033796       -2.04565532       -3.00068162
 C            0.93700062        0.86506913       -3.11937508
 C            0.89896732       -0.42206251       -3.77718813
 C           -0.49210550       -0.84502648       -3.80921960
 C           -0.75848605        2.30986620       -2.11306431
 C           -2.03574801        2.27157551       -1.54306422
 C           -2.92911205        1.16953509       -1.85516952
 C           -2.42971264        0.07462591       -2.65974590
 C           -0.41548680        1.39587600       -3.11169479
 C           -1.31354054        0.29677699       -3.44964278
