56
Modified xyz file
 C            1.41537750        0.03109664        4.15875215
 C            0.61397896       -1.14912501        3.88734581
 C            1.42702209       -2.04689643        3.09860143
 C            2.57020261       -0.01238973        3.27650185
 C            2.60776138       -1.31721636        2.65877099
 C            2.51050170        1.14706433        2.41397788
 C            0.62310661        1.19314554        3.79608883
 C            1.35508112        1.94442451        2.79403110
 C           -0.66066318       -0.71099305        3.34021506
 C           -0.71003637        0.73861397        3.46817435
 C           -1.16379261       -1.31858900        2.18258377
 C            0.83205220       -2.63902085        1.92268631
 C           -0.52390782       -2.45758557        1.66748206
 C            2.65780457       -1.39860768        1.20697152
 C            1.75359872       -2.45692452        0.81431284
 C            2.79037458        1.02114053        1.05842660
 C            2.68225072       -0.23961426        0.44152956
 C            2.53972494        2.15293061        0.29695022
 C            0.65013317        2.60148038        1.78277909
 C            1.34583996        2.92242981        0.61547898
 C           -1.42435179        1.45922732        2.52864096
 C           -0.74336013        2.47811114        1.73143453
 C           -2.08732967       -0.61560752        1.39237923
 C           -2.30375573        0.74147418        1.63063890
 C           -2.58552755       -1.18171683        0.21561395
 C           -0.97592912       -2.99508182        0.47114070
 C           -2.17105646       -2.46076663       -0.14291026
 C            1.20613049       -2.45887118       -0.46592283
 C            0.00280772       -3.14366074       -0.59400230
 C            2.30380310       -0.32963799       -0.90239936
 C            1.46692598       -1.37961467       -1.33141923
 C            2.64313616        2.06504274       -1.14208340
 C            2.56609438        0.75113994       -1.73848265
 C            0.62084635        3.11461707       -0.63026257
 C            1.56123331        2.85669299       -1.70255109
 C           -1.43442184        2.54868230        0.44764510
 C           -2.55411377        1.62469526        0.50985662
 C           -0.69362776        2.66284007       -0.72655005
 C           -3.23526446       -0.36333561       -0.71592770
 C           -3.03294244        1.07345899       -0.66218877
 C           -3.26145391       -0.72309833       -2.12450999
 C           -2.10576137       -2.84710282       -1.54406826
 C           -0.70630029       -3.10389092       -1.84808234
 C           -2.61438511       -1.94365899       -2.55460113
 C            0.77956650       -1.28468804       -2.56129914
 C           -0.28958899       -2.13747291       -2.83546427
 C           -1.50055959       -1.57669765       -3.41583264
 C            1.81830536        0.90219275       -2.96389216
 C            1.09546513        2.16591796       -2.88059553
 C            0.85743191       -0.11746737       -3.31557618
 C           -1.17489995        2.09033767       -1.91625604
 C           -2.42098233        1.46208176       -1.92035234
 C           -2.67112519        0.38166396       -2.86570466
 C           -1.56345189       -0.14315378       -3.64789416
 C           -0.31397467        1.85148698       -2.99067767
 C           -0.37399323        0.57049687       -3.66950365
