56
Modified xyz file
 C            1.37577415       -0.15907835        3.49357173
 C            2.52567748       -0.35331415        2.62509364
 C            2.38350188       -1.65124665        1.98243995
 C            0.51826230       -1.32561925        3.37207864
 C            1.14833939       -2.25796168        2.45905534
 C           -0.82718996       -0.86512763        3.08249943
 C            0.54965125        1.02728257        3.32787421
 C           -0.80470491        0.58969025        3.03684096
 C            1.06795693        2.12206426        2.65448875
 C            3.01667663        0.72890958        1.90281858
 C            2.40396528        2.03514510        2.08543170
 C            3.32468749        0.57865051        0.48744998
 C            2.77009257       -1.81415167        0.65616926
 C            3.22183030       -0.66549616       -0.11580956
 C            1.98991691       -2.66710985       -0.22810366
 C            0.34427717       -2.97072418        1.57919753
 C            0.81443659       -3.25133468        0.23138632
 C           -1.60667805       -1.55074719        2.15483915
 C           -1.08076304       -2.67226949        1.50173343
 C           -2.70108714       -0.88399025        1.61108784
 C           -1.56895358        1.24484656        2.07130512
 C           -2.67524952        0.57001045        1.55244219
 C            0.22885639        2.83603235        1.70765316
 C           -1.05041160        2.36235937        1.40202070
 C            2.38390197        2.70182188        0.79546167
 C            2.81067172        1.74538610       -0.20987761
 C            1.08848024        3.33236383        0.63870140
 C            2.03484857        1.58437851       -1.35841019
 C            2.63389163       -0.76172701       -1.44021947
 C            2.03575881       -2.08356751       -1.55936801
 C            1.99424787        0.34335569       -2.00504821
 C            0.97390618       -2.27191069       -2.43500267
 C           -0.34835093       -3.32524041       -0.64069626
 C           -1.52681926       -3.02430787        0.15884629
 C           -0.26333728       -2.86917533       -1.95278791
 C           -3.31062251       -1.37144370        0.38758688
 C           -2.59700218       -2.34782986       -0.41152509
 C           -3.25931111        0.97749577        0.28518853
 C           -3.60069400       -0.22338352       -0.45524298
 C           -1.68281766        2.84239216        0.25485904
 C           -2.69987254        2.04153645       -0.40014052
 C            0.56536017        3.43546215       -0.64119939
 C            1.10484575        2.57552134       -1.68816513
 C           -0.87613705        3.44755113       -0.78983799
 C           -2.28919088        1.85904196       -1.78651805
 C            0.02776896        2.28486676       -2.62134137
 C           -1.20387003        2.78948383       -2.04378125
 C            1.11647074        0.14432301       -3.06928302
 C            0.62329025       -1.19563730       -3.34343174
 C            0.00518028        1.05675148       -3.26178119
 C           -1.37642172       -2.13774406       -2.54057425
 C           -2.48191741       -1.81799087       -1.76218658
 C           -2.97882315       -0.44841401       -1.74823174
 C           -2.22988369        0.57527299       -2.33002822
 C           -0.82743167       -1.12659044       -3.42429330
 C           -1.21498494        0.26113774       -3.23523604
