56
Modified xyz file
 C            1.47707179       -0.02472637        4.21281487
 C            0.64949740       -1.21276861        4.09630048
 C            1.38461017       -2.19578600        3.32208668
 C            2.65448371       -0.22125471        3.38585406
 C            2.62891936       -1.58366772        2.88698632
 C            2.71276036        0.86707366        2.42599637
 C            0.72933639        1.09000982        3.65782217
 C            1.50314298        1.66117565        2.57132608
 C           -0.66211464       -0.79902231        3.62873745
 C           -0.61613223        0.63177300        3.36645872
 C           -1.34748708       -1.61299564        2.73516052
 C            0.74543762       -2.78483059        2.15812921
 C           -0.62607542       -2.64347998        1.99292992
 C            2.75954969       -1.80214901        1.45628959
 C            1.61186050       -2.57399631        1.00812235
 C            3.17831416        0.60757714        1.14577341
 C            3.21964124       -0.76885911        0.65453131
 C            2.68903709        1.42675308        0.05222300
 C            0.82130090        2.07727506        1.42879385
 C            1.48947766        2.12327310        0.19970798
 C           -1.24647895        1.12425489        2.22652045
 C           -0.57290847        2.07046645        1.44493070
 C           -2.29029783       -0.99723337        1.81606359
 C           -2.28803604        0.38287449        1.65918087
 C           -1.16863844       -2.66997405        0.64719452
 C           -2.35489027       -1.83172797        0.62976718
 C            1.03915307       -2.30843625       -0.23984919
 C           -0.30839391       -2.62559672       -0.44547121
 C            2.81014657       -0.73403325       -0.73704010
 C            2.89950182        0.65127822       -1.15209821
 C            1.71517122       -1.48928795       -1.15872832
 C            2.22010246        1.02903560       -2.29299569
 C            0.79057578        2.50621626       -0.95195668
 C            1.29881861        2.14795127       -2.20264297
 C           -1.24902932        2.68777263        0.40333895
 C           -0.53545801        2.92881277       -0.83904764
 C           -2.97305266        0.90886884        0.57080375
 C           -2.57506637        2.20884801        0.06984497
 C           -2.74313308       -1.26172264       -0.58050416
 C           -3.23204242        0.04909161       -0.57825681
 C           -0.87775785       -2.40319716       -1.69195758
 C           -2.20014130       -1.79564517       -1.74829026
 C            1.10921078       -1.15679364       -2.37481345
 C            1.52127628        0.00269826       -3.04179868
 C           -0.07943909       -1.78937997       -2.73162572
 C            0.40456072        2.03485447       -3.34405185
 C            0.60881213        0.71366414       -3.92227066
 C           -1.47381320        2.72535495       -1.93789843
 C           -2.70433628        2.19774766       -1.37574421
 C           -3.15592465        0.87644131       -1.77799394
 C           -1.01953552        2.22023770       -3.14886289
 C           -2.29593711       -1.06244794       -2.99705384
 C           -1.00583632       -1.15997639       -3.66189730
 C           -0.68924430        0.14254283       -4.20886290
 C           -2.67917165        0.33510057       -2.96524860
 C           -1.70139806        1.07996538       -3.74672806
