56
Modified xyz file
 C            1.52775851       -0.32410725        4.47619136
 C            0.64268267       -1.46494029        4.36335184
 C            1.10806990       -2.27165146        3.24852507
 C            2.52768978       -0.44015406        3.42753381
 C            2.13757171       -1.53286526        2.55306459
 C            2.67420904        0.87387905        2.85311592
 C            0.74733008        0.86704849        4.18471051
 C            1.55812182        1.69076134        3.32253853
 C           -0.67423744       -0.96737628        4.00172596
 C           -0.55460891        0.44243709        3.70294092
 C           -0.05902755       -2.64535723        2.49216426
 C           -1.17360701       -1.82742770        2.95373053
 C            0.05954839       -2.80353135        1.12018394
 C            1.97846061       -1.30475126        1.18045482
 C            1.08325378       -2.10351170        0.44864323
 C            2.69418313        0.99296854        1.41089908
 C            2.48304484       -0.12864350        0.60480558
 C            0.94332929        2.27079454        2.14491532
 C            1.93607152        2.18433862        1.10230286
 C           -1.01794203        0.88945890        2.46264112
 C           -0.36928149        1.94983561        1.80319263
 C           -1.99591548       -1.28075453        1.97122075
 C           -1.95555617        0.10899723        1.76959458
 C           -1.14868684       -2.97729827        0.46679451
 C           -2.23539601       -2.10602502        0.87486503
 C           -1.15456689       -3.06653819       -0.96773702
 C            1.01858505       -1.94630555       -0.94556929
 C            0.01735547       -2.59927839       -1.66856461
 C            2.24462119        0.12029730       -0.74950884
 C            1.71421381       -0.89429362       -1.55045630
 C            1.49787463        2.31150867       -0.19807848
 C            2.06052991        1.45454546       -1.13055850
 C           -0.79049739        2.31478273        0.51908102
 C            0.18089085        2.70833420       -0.41322392
 C           -2.58692719        0.66118968        0.65775509
 C           -2.02702011        1.86266168        0.06835340
 C           -2.84270245       -1.56764552       -0.32687355
 C           -2.28907472       -2.29534355       -1.45305633
 C           -3.02828828       -0.19944149       -0.43068418
 C           -0.47407786       -2.00717619       -2.89505713
 C           -1.83291371       -1.56022142       -2.61694160
 C            1.54639931       -0.65326255       -2.91887328
 C            0.36166702       -1.16084577       -3.59671631
 C            1.86626543        1.76930885       -2.46608392
 C            1.78807388        0.68739491       -3.42341167
 C           -0.18625927        2.97678281       -1.73194563
 C            0.80294473        2.71381704       -2.76970473
 C           -2.31173081        1.83163994       -1.35706724
 C           -2.74128516        0.47974814       -1.68840453
 C           -2.14210175       -0.20666437       -2.75273648
 C           -1.47021829        2.50425616       -2.22740825
 C           -0.25112662       -0.04471064       -4.29216425
 C            0.73843951        1.00993203       -4.37667756
 C            0.10461942        2.24622440       -3.95036580
 C           -1.47384904        0.51686896       -3.73912106
 C           -1.25690682        1.94030998       -3.54830578
