56
Modified xyz file
 C            1.34319533        0.00510441        3.94761554
 C            2.49001911       -0.11588146        3.07298964
 C            2.45285091       -1.43608328        2.46441183
 C            0.51651407       -1.17685552        3.76419942
 C            1.22686269       -2.09211451        2.88518701
 C           -0.81671804       -0.73507430        3.38474516
 C            0.48883010        1.16643120        3.81249709
 C           -0.86963964        0.69939736        3.57029950
 C            0.78785170        2.16008175        2.79413747
 C            2.67623441        0.85345031        2.00669941
 C            1.87191389        1.99131050        1.92294093
 C            2.71715493       -1.28168364        1.04086828
 C            2.98688935        0.11939508        0.78921839
 C            1.94800119       -1.98671913        0.12400661
 C            0.49782083       -2.79923787        1.93914171
 C            1.02489029       -2.92437726        0.59151925
 C           -1.41154823       -1.29471908        2.25892457
 C           -0.91766679       -2.50977669        1.78852115
 C           -2.18997889       -0.49808395        1.41174811
 C           -1.43296090        1.51625168        2.51180340
 C           -0.49596802        2.59727276        2.26645955
 C           -2.04660875        0.89901167        1.42497546
 C           -0.53032059        3.24164498        1.04064475
 C            1.88454114        2.70460677        0.72700035
 C            0.72868184        3.51008784        0.37466718
 C            2.62150243        0.66814102       -0.43437733
 C            2.33461938        2.03316717       -0.48385073
 C            1.83025821       -1.50322516       -1.18096560
 C            2.17628790       -0.16924700       -1.46335792
 C            1.09817462       -2.26038796       -2.09758869
 C           -0.09323243       -3.31236187       -0.25426993
 C           -1.31392905       -2.98955243        0.47395728
 C           -0.01489497       -3.05490388       -1.61481973
 C           -2.87448044       -1.11074376        0.36477635
 C           -2.36102800       -2.35654600       -0.18150875
 C           -3.33752974       -0.30161890       -0.74264663
 C           -2.23866587        1.64273444        0.25311050
 C           -1.46976712        2.78184897        0.02891982
 C           -2.85719849        1.05880595       -0.84510500
 C            0.51561821        3.39147219       -1.05767297
 C            1.58666241        2.58314199       -1.60546371
 C           -0.85494023        2.96489721       -1.27739886
 C            1.82794785        0.41381363       -2.68307587
 C            1.29820881        1.76182348       -2.68262350
 C            0.69833861       -1.69472054       -3.36922479
 C            1.05426865       -0.32696962       -3.65982561
 C           -1.20004335       -2.61763192       -2.33714042
 C           -2.33562271       -2.23351636       -1.63099638
 C           -3.00670598       -0.99213342       -1.97895581
 C           -0.74902322       -1.81199650       -3.46332640
 C           -2.25327389        1.22928608       -2.15895694
 C           -1.11990306        2.03671374       -2.28374540
 C           -0.08134337        1.65715371       -3.13841303
 C           -0.17521966        0.41894260       -3.89385988
 C           -2.34519484       -0.04447144       -2.86141399
 C           -1.29073257       -0.47535503       -3.65540181
