56
Modified xyz file
 C            1.37711296        0.10373990        4.09626916
 C            0.56573352       -1.09609332        3.98732482
 C            1.41805534       -2.14620751        3.48316251
 C            2.59284189       -0.12448066        3.33351428
 C            2.69834758       -1.54981671        3.11743824
 C            2.56581622        0.76733202        2.18366886
 C            0.65135516        1.18236235        3.45118424
 C            1.48588444        1.71580277        2.39892239
 C           -0.63068438       -0.75589669        3.23926373
 C           -0.65255042        0.68687372        3.07090367
 C           -1.04445919       -1.55003008        2.16787561
 C            0.96038106       -2.91794287        2.34753649
 C           -0.29603389       -2.68300102        1.78762301
 C            3.03970116       -2.01987017        1.79065149
 C            2.08950537       -3.06102616        1.44763353
 C            2.77729215        0.27735711        0.88759023
 C            3.05747683       -1.07869108        0.68227078
 C            2.30128774        1.03304145       -0.19212116
 C            0.86112545        2.22786657        1.27436157
 C            1.57930915        2.19680135        0.09292938
 C           -1.22117741        1.19041847        1.90851464
 C           -0.53361282        2.17194187        1.18251936
 C           -1.97898841       -0.99984770        1.27922157
 C           -2.13769990        0.39181679        1.23546540
 C           -2.49961355       -1.78793360        0.25689202
 C           -0.52882019       -3.26067529        0.54144002
 C           -1.74127578       -2.93749428       -0.17750659
 C            1.83506865       -2.97617755        0.01971443
 C            2.46096715       -1.75270138       -0.46017810
 C            0.55958426       -3.28087732       -0.42631471
 C            2.09323749        0.39078428       -1.41988850
 C            1.81813577       -0.97120998       -1.41452346
 C            1.65805369        1.13621670       -2.50752823
 C            1.09645137        2.96611693       -0.95214108
 C            1.40407133        2.54424359       -2.29960174
 C           -1.13531344        2.69969952        0.03235624
 C           -0.31396340        3.31544222       -0.92204133
 C           -2.88459024        0.98463705        0.22283306
 C           -2.41241004        2.24825208       -0.32086780
 C           -3.00581998       -1.15431653       -0.94421124
 C           -3.37812112        0.17851448       -0.88421953
 C           -1.37389452       -2.71051928       -1.56779533
 C            0.06657083       -2.62337015       -1.62005453
 C            0.64233336       -1.42370688       -2.02820681
 C           -2.13892227       -1.57613270       -2.03606253
 C            0.54967109        0.60902332       -3.28466358
 C           -0.10317296       -0.53076223       -2.81093634
 C           -1.51178553       -0.59469467       -2.80047381
 C            0.30082937        2.93845974       -3.15617690
 C           -0.75205591        3.46192718       -2.30219733
 C           -0.21261581        1.73633021       -3.78946643
 C           -2.87418332        2.31995832       -1.69791540
 C           -3.24110947        0.97311833       -2.09281470
 C           -2.27086516        0.54196231       -3.08173665
 C           -1.98764176        2.83837005       -2.71925077
 C           -1.64481951        1.73506509       -3.61018614
