56
Modified xyz file
 C            1.06416673       -0.12321021        4.74298106
 C            0.25374710       -1.32963941        4.73307955
 C            1.02938870       -2.38825317        4.10851689
 C            2.30872373       -0.41799946        4.05766900
 C            2.28726921       -1.81601138        3.66607844
 C            2.49114428        0.58414783        3.02159449
 C            0.36934381        0.88922588        3.96452281
 C            1.28806592        1.40319243        2.96433982
 C           -0.90013174       -1.07577452        3.88999298
 C           -0.88204827        0.32518280        3.50073155
 C            0.31227777       -2.82890157        2.92303649
 C           -0.91879543       -2.07065756        2.82961553
 C            2.44939621       -2.13907130        2.25880787
 C            1.22397005       -2.77460579        1.79410905
 C            3.07727797        0.20183988        1.82496591
 C            3.05569864       -1.20775012        1.43013422
 C            2.77190328        0.97241786        0.63444577
 C            0.77131369        1.75880014        1.71537061
 C            1.62063419        1.76294182        0.60553814
 C           -1.28851448        0.63282522        2.20849779
 C           -0.60340917        1.62267552        1.50240104
 C           -1.32349076       -1.65070273        1.56884296
 C           -1.87512379       -0.38016833        1.46005751
 C            0.70731225       -2.41497419        0.54626013
 C           -0.66121140       -2.14890908        0.44592934
 C            2.73801168       -1.23888062        0.01503422
 C            3.03341520        0.08845451       -0.48190902
 C            1.56499894       -1.86632642       -0.41105054
 C            2.51562438        0.44001738       -1.70867317
 C            1.09529054        2.11966068       -0.63915569
 C            1.74998097        1.66628139       -1.78675782
 C           -1.12764807        1.97861518        0.26027006
 C           -0.25808972        2.45776978       -0.72360003
 C           -2.39595722       -0.02653182        0.22604371
 C           -2.28203201        1.30739700       -0.14547409
 C           -1.18545583       -1.79295526       -0.79618302
 C           -2.31699768       -0.97611576       -0.78513159
 C            1.03966376       -1.50965146       -1.65576634
 C            1.71609454       -0.54502872       -2.40617613
 C           -0.32208562       -1.71605636       -1.89272565
 C            1.02368644        1.59620197       -3.04052957
 C            1.00207868        0.18662850       -3.43537314
 C           -0.79226462        2.81571195       -1.96453714
 C           -0.12485662        2.36040493       -3.17646324
 C           -2.91509147        1.70557522       -1.31611428
 C           -2.21985192        2.64723041       -2.16999481
 C           -2.95179432       -0.69026693       -1.98721724
 C           -3.45771422        0.66076690       -2.16964789
 C           -0.85632857       -1.36211305       -3.13479494
 C           -0.16661027       -0.36281526       -3.93927703
 C           -2.27686394       -1.07088087       -3.21147056
 C           -1.14203373        1.92505065       -4.11819670
 C           -2.43720392        2.25416276       -3.55276261
 C           -3.24345977        1.04490907       -3.55284173
 C           -1.16347137        0.52703742       -4.50980833
 C           -2.47194275       -0.01087373       -4.18723469
