56
Modified xyz file
 C            1.21971673        0.01024171        3.60491330
 C            2.43395690       -0.32245705        2.89722698
 C            2.34608090       -1.72047027        2.49994105
 C            0.39529512       -1.18618141        3.65535097
 C            0.98372872       -2.15731301        2.75099028
 C           -0.98270414       -0.78602691        3.44232735
 C            0.39247468        1.08179418        3.09281898
 C           -0.99201705        0.64907743        3.18178812
 C            0.79281791        1.81429917        1.97595970
 C            2.77423091        0.43457564        1.70967848
 C            1.88094894        1.38331451        1.20142534
 C            2.88495440       -1.82437691        1.15645686
 C            3.39227700       -0.50812562        0.79707997
 C            2.18896980       -2.56598855        0.21062215
 C            0.21395917       -2.66273292        1.70218918
 C            0.82104538       -2.98621538        0.48763329
 C           -1.79537904       -1.61152919        2.68392040
 C           -1.17685227       -2.55276407        1.75725166
 C           -2.94252200       -1.02449594        2.02297284
 C           -1.91742412        1.20005026        2.29322956
 C           -2.95707928        0.40915846        1.79257848
 C           -0.15143822        2.66217340        1.41304070
 C           -1.56341256        2.37154689        1.62545010
 C            0.01133591        3.11778648        0.04745642
 C            1.98346890        1.74702251       -0.15002903
 C            1.01865392        2.57528915       -0.74088621
 C            3.48303910       -0.15546181       -0.53935007
 C            2.96593708        1.13932329       -0.93757741
 C            2.26808263       -2.18646346       -1.19119481
 C            3.05468402       -1.10222005       -1.55932243
 C            0.05986779       -2.87488026       -0.74815966
 C            0.94204576       -2.34145185       -1.77529454
 C           -1.94259869       -2.52568385        0.51983826
 C           -3.10475723       -1.68249985        0.73749532
 C           -1.26985486       -2.47062279       -0.69799416
 C           -3.45262632        0.61855226        0.43746835
 C           -3.42858055       -0.66683537       -0.24582691
 C           -2.28407873        2.76152812        0.42776418
 C           -1.31693108        3.27823906       -0.52490973
 C           -3.10165533        1.77439849       -0.24909191
 C           -1.59456877        2.68054064       -1.81902025
 C           -2.64521237        1.68886059       -1.62975861
 C            0.82559667        2.56032649       -2.12487242
 C           -0.51894603        2.39357346       -2.64983657
 C            2.80699205        1.07903587       -2.37570747
 C            2.67288910       -0.32677111       -2.72634616
 C            1.70307711        1.78856950       -2.97929059
 C            0.45991208       -1.39678548       -2.68054469
 C           -0.51481669        1.16491551       -3.42922300
 C            1.34459443       -0.50518175       -3.28594569
 C            0.87402313        0.81341710       -3.67237234
 C           -1.80037537       -1.72764767       -1.75308166
 C           -2.86498289       -0.76182224       -1.51079923
 C           -2.54900388        0.44768540       -2.25300460
 C           -0.91292270       -1.16759309       -2.76170622
 C           -1.41391608        0.15530227       -3.11372193
