56
Modified xyz file
 C            1.21263379       -0.03726524        3.75437932
 C            2.47477773       -0.23244502        3.06758959
 C            2.44026107       -1.54769317        2.45565578
 C            0.36923970       -1.18991322        3.47257901
 C            1.08371285       -2.05949962        2.56936072
 C           -0.92564463       -0.70545959        3.06797599
 C            0.44176195        1.16070138        3.47322946
 C           -0.91601445        0.74802483        3.14333691
 C            1.03117899        2.19775897        2.76323112
 C            2.87410450        0.71985988        2.04548473
 C            2.23114717        1.94704763        1.96888696
 C            3.02062178       -1.43765386        1.12983241
 C            3.12710930       -0.01967854        0.81860463
 C            2.54212038       -2.29044113        0.15076073
 C            0.45650110       -2.52570241        1.41494061
 C            1.29207258       -2.99061240        0.40242517
 C           -1.58028720       -1.30248490        2.00093917
 C           -0.85980274       -2.11956490        1.10445779
 C           -2.71865975       -0.64345318        1.56285875
 C           -1.67984832        1.47400449        2.22221965
 C           -2.70801270        0.81052876        1.55388702
 C            0.17523059        3.08437191        2.00108508
 C           -1.16394149        2.64177778        1.65533211
 C            2.02814179        2.55132464        0.66614701
 C            0.86529710        3.41552755        0.76700051
 C            2.62986671        0.45997120       -0.39760888
 C            2.19797633        1.79359415       -0.49185909
 C            2.46946978       -1.81048591       -1.21370082
 C            2.42602627       -0.43947818       -1.45723691
 C            0.73543591       -3.34657080       -0.88082435
 C            1.52897835       -2.67777330       -1.90229413
 C           -1.44239563       -2.50437916       -0.12311342
 C           -0.65107646       -3.04322087       -1.13596647
 C           -3.38709068       -1.09049435        0.36634694
 C           -2.70297494       -2.03216552       -0.48620047
 C           -3.04892396        1.21894805        0.20255312
 C           -3.69603907        0.08784094       -0.43112659
 C           -1.35944992        2.89305311        0.23211182
 C           -0.10677661        3.39441265       -0.31147421
 C           -2.14596390        2.00912862       -0.50656344
 C            1.58167886        2.24927550       -1.65501995
 C            0.30767685        2.94685358       -1.55369634
 C            1.87877546       -0.00122061       -2.66126338
 C            1.51362206        1.38782067       -2.81375133
 C            0.61310360       -2.09448574       -2.86767681
 C           -0.73334962       -2.48365667       -2.47689020
 C            0.85140215       -0.80041917       -3.31574471
 C           -2.91821427       -1.59398002       -1.85596450
 C           -3.37464315       -0.21418739       -1.80546765
 C           -1.80774525       -1.66115995       -2.79143564
 C           -1.77859396        1.67102210       -1.82123257
 C           -0.63446989        2.22990787       -2.38856909
 C            0.15033239        1.43795072       -3.32144435
 C           -0.26954565        0.07857728       -3.61539164
 C           -2.38069520        0.59488510       -2.47913236
 C           -1.56009765       -0.30862452       -3.27256283
