56
Modified xyz file
 C            1.31847590       -0.06627845        3.69148258
 C            2.54736929       -0.24155074        2.94104823
 C            2.53829020       -1.58631202        2.39791391
 C            0.47465335       -1.22831159        3.44341891
 C            1.20193144       -2.13064110        2.57642283
 C           -0.81637623       -0.74434312        3.00699863
 C            0.51040595        1.11630181        3.45237780
 C           -0.86755109        0.66912017        3.33050401
 C            0.98180690        2.10951981        2.59814428
 C            2.84551405        0.66998300        1.85039136
 C            2.12716387        1.85133335        1.73130348
 C            3.07570400       -1.52649905        1.04931871
 C            3.10277988       -0.12461822        0.65840665
 C            2.60796914       -2.45485984        0.13403946
 C            0.56871008       -2.67871674        1.46406872
 C            1.39994031       -3.18954301        0.46845491
 C           -1.32239917       -1.17650465        1.78378657
 C           -0.73519703       -2.26700919        1.13316949
 C           -2.28655612       -0.39638185        1.12994781
 C           -1.78150653        1.46134859        2.65381006
 C           -2.66820416        0.82143439        1.70032532
 C            0.02770793        2.91126008        1.84738916
 C           -1.33201914        2.70072790        2.03498053
 C            1.80044630        2.34662540        0.40787611
 C            0.54809107        3.08157957        0.49620241
 C            2.54974817        0.26146287       -0.56635253
 C            2.04436808        1.56339754       -0.71613078
 C            2.46232286       -2.05593857       -1.25118824
 C            2.36266662       -0.70342678       -1.57000537
 C            0.83344644       -3.67411146       -0.77282477
 C            1.52623453       -2.99166579       -1.85611272
 C           -1.35696375       -2.77014135       -0.00639010
 C           -0.58699826       -3.51916584       -0.98393000
 C           -2.71254740       -0.73115560       -0.16427133
 C           -2.26541524       -1.91321560       -0.74272181
 C           -3.14781239        0.26875589       -1.03307477
 C           -3.18543142        1.88187407        0.85951903
 C           -2.23947496        2.98513501        0.93864439
 C           -3.41770933        1.60300559       -0.53930100
 C           -0.31807107        3.08465552       -0.59954245
 C           -1.69548357        3.18436194       -0.39363724
 C           -2.60262686        2.52385898       -1.31546897
 C            1.43136800        1.94623730       -1.90309260
 C            0.16545711        2.66225280       -1.84094293
 C            1.74539195       -0.35951387       -2.76971018
 C            1.36245596        1.01422972       -3.00487802
 C            0.52552108       -2.48551822       -2.77987999
 C           -0.77638707       -2.88497292       -2.27891744
 C           -1.80973304       -1.87655476       -2.12625612
 C            0.67784116       -1.20302028       -3.28840646
 C           -2.48952701        0.40374241       -2.32090507
 C           -2.04561847        1.78832414       -2.43494422
 C           -0.73765288        2.04786085       -2.80665838
 C           -0.00339163        1.01420682       -3.50668877
 C           -1.67051124       -0.63967752       -2.75513441
 C           -0.49261655       -0.35294736       -3.45257869
