56
Modified xyz file
 C            1.59996295       -0.19524513        4.17198049
 C            0.74277454       -1.36492696        4.21379599
 C            1.24236919       -2.30873451        3.23302058
 C            2.57352548       -0.39031597        3.10937903
 C            2.30719974       -1.66395403        2.48055996
 C            2.55436892        0.79166955        2.27912801
 C            0.77708012        0.93897593        3.79502379
 C            1.48580746        1.66060402        2.75803660
 C           -0.58457481       -0.96289643        3.77825181
 C           -0.54977194        0.45332550        3.47761284
 C            0.09810315       -2.80611493        2.49484313
 C           -0.99700035       -1.87384646        2.72878465
 C            0.31645738       -3.22924285        1.19356185
 C            2.26529868       -1.73700123        1.08898808
 C            1.52475568       -2.77489999        0.51995916
 C            2.71409914        0.65860982        0.90265341
 C            2.58740793       -0.61104022        0.31155163
 C            2.43580085        1.79408912        0.14474605
 C            0.74073510        2.34164172        1.80023162
 C            1.41777845        2.70327981        0.64072818
 C           -1.12550186        0.89892396        2.29427619
 C           -0.63015043        2.06656316        1.71303148
 C           -1.68307956       -1.36679150        1.62683060
 C           -1.87728104        0.01717325        1.50783940
 C           -0.75996433       -3.08575459        0.23301881
 C           -1.77515126       -2.16478288        0.48855586
 C            1.25734069       -2.78459035       -0.90886324
 C           -0.14786687       -3.12344219       -1.08511153
 C            2.56658826       -0.72179010       -1.08187749
 C            1.83891595       -1.81373107       -1.70936491
 C            2.29338588        1.70317204       -1.29586523
 C            2.37901679        0.46178695       -1.90568187
 C            0.67511670        3.21719277       -0.49403391
 C            1.25974570        2.64433583       -1.70169033
 C           -1.38134642        2.65660213        0.70320935
 C           -0.70198098        3.34863687       -0.37944812
 C           -2.55251661        0.52458634        0.39200619
 C           -2.46451341        1.88861152        0.11462856
 C           -2.57117134       -1.73780452       -0.56583486
 C           -3.00296184       -0.35174333       -0.59718031
 C           -0.85720420       -2.60795502       -2.16153933
 C           -2.20323775       -2.12105079       -1.91937819
 C            1.10321404       -1.27673458       -2.84437895
 C            1.47074683        0.12187146       -2.99180848
 C           -0.20877258       -1.67929489       -3.07668890
 C            0.45621903        2.35959576       -2.80170574
 C            0.52616398        1.04733501       -3.42627820
 C           -1.53305620        3.24335075       -1.56502914
 C           -2.64571471        2.36158023       -1.24757224
 C           -0.93429979        2.78266274       -2.80374679
 C           -3.04238600        0.06968511       -1.99384487
 C           -2.43601885       -0.98383593       -2.78968611
 C           -1.20287497       -0.70653294       -3.50769429
 C           -0.83321842        0.61706273       -3.72066240
 C           -2.77095488        1.39181060       -2.31812279
 C           -1.73740726        1.67931868       -3.30314505
