56
Modified xyz file
 C            1.68203474        0.06264395        4.14142595
 C            0.89756806       -1.16085008        4.12429527
 C            1.58524703       -2.10790082        3.26733685
 C            2.68040157       -0.03918608        3.09030886
 C            2.70721284       -1.41424312        2.65038392
 C            2.40794757        0.99506216        2.10520935
 C            0.79561236        1.15872145        3.79953511
 C            1.32454822        1.81432745        2.61649058
 C           -0.47889405       -0.80621539        3.81991412
 C           -0.56035330        0.64586127        3.74898959
 C           -1.20244946       -1.58198174        2.91844139
 C            0.84118910       -2.77406657        2.20975533
 C           -0.53290827       -2.61221202        2.12973188
 C            2.64675933       -1.67096694        1.22892372
 C            1.62819055       -2.68013388        0.99374089
 C            2.41847039        0.68441207        0.74253788
 C            2.74120372       -0.61722783        0.32452502
 C            1.75737692        1.55153521       -0.13979047
 C            0.42961425        2.35020721        1.70082577
 C            0.83516524        2.47640360        0.37552581
 C           -1.44199881        1.24140612        2.85543271
 C           -0.93942539        2.27880163        1.97038965
 C           -2.21219860       -0.95898055        2.07563164
 C           -2.34919301        0.41918092        2.06629916
 C           -1.16423949       -2.65068262        0.82504574
 C           -2.24804238       -1.68166518        0.81880097
 C            1.00218749       -2.69095919       -0.25421620
 C           -0.39623267       -2.79809343       -0.33079856
 C            2.55544318       -0.95494523       -1.00829230
 C            1.70365086       -2.09688093       -1.30456280
 C            1.84024021        1.32560840       -1.52014951
 C            2.24652372        0.07744563       -1.97315880
 C            1.20710528        2.18692827       -2.41420298
 C           -0.02177291        3.14975696       -0.48616093
 C            0.24883595        3.14237047       -1.90738926
 C           -1.88222129        2.37689554        0.86825448
 C           -2.57729288        1.10146166        0.80022604
 C           -1.45021472        2.95339957       -0.31336574
 C           -2.52860676       -1.02114288       -0.37387567
 C           -2.57093042        0.38351721       -0.39976638
 C           -1.04251166       -2.56206075       -1.54586775
 C           -2.22749569       -1.71712954       -1.53859344
 C            1.05440206       -1.85171311       -2.57834294
 C            1.52694596       -0.55988484       -3.06528745
 C           -0.27522363       -2.21212746       -2.72732872
 C            0.65864137        1.65062180       -3.65227193
 C            0.72382193        0.21842832       -3.89155100
 C           -1.01482348        2.88912561       -2.58070480
 C           -1.93393845        2.40658829       -1.56466554
 C           -2.37428429        1.08111367       -1.60347257
 C           -0.73894891        2.05275541       -3.73001325
 C           -2.30829586       -1.04391304       -2.81450231
 C           -1.14070871       -1.43034959       -3.59361075
 C           -0.61788094       -0.23172834       -4.22383593
 C           -2.38319200        0.39909066       -2.82132349
 C           -1.53206187        0.85357064       -3.91087620
