56
Modified xyz file
 C            1.29063291        0.01667454        3.92877414
 C            2.49498127       -0.16081908        3.14617124
 C            2.50329805       -1.52581910        2.64159592
 C            0.47196713       -1.17557940        3.76132651
 C            1.20841643       -2.11293171        2.92865973
 C           -0.85492932       -0.74800412        3.34169919
 C            0.45349545        1.16509056        3.65060860
 C           -0.91100898        0.68529052        3.50932942
 C            0.74078611        1.98912848        2.48582526
 C            2.73670600        0.71494907        2.01117198
 C            1.75862429        1.62892468        1.60867701
 C            2.96889293       -1.47457422        1.26486167
 C            3.39134682       -0.10359338        1.01031412
 C            2.28185781       -2.17434455        0.27083116
 C            0.53285705       -2.77833773        1.91567973
 C            1.14482909       -2.91184226        0.59931108
 C           -1.42124610       -1.31211731        2.20110627
 C           -0.87613892       -2.49488756        1.70359819
 C           -2.29363037       -0.55882375        1.39871744
 C           -1.53396669        1.46407073        2.46488491
 C           -0.53854976        2.38915436        1.94174530
 C           -2.37595081        0.83559984        1.55390792
 C           -0.63532275        2.74646164        0.60216560
 C            1.64604379        1.96383285        0.25591149
 C            0.48350693        2.58250954       -0.23125246
 C            3.42202737        0.35102957       -0.29656473
 C            2.61986085        1.51337144       -0.64039915
 C            2.50777037       -1.83837004       -1.06123063
 C            3.23977298       -0.61969102       -1.35846138
 C            1.42616259       -1.95309488       -2.02972557
 C            0.06420495       -3.04221280       -0.37036641
 C           -1.19574050       -2.92369333        0.35680130
 C            0.19694857       -2.47607788       -1.63988641
 C           -2.89667915       -1.17283364        0.29705215
 C           -2.29451645       -2.36799159       -0.27490868
 C           -3.40602420       -0.36797997       -0.80183135
 C           -2.79646126        1.62143918        0.48436146
 C           -1.91439102        2.69086545        0.05104246
 C           -3.37098203        1.01338279       -0.70103688
 C           -2.10843613        2.88685307       -1.36868265
 C           -2.95328949        1.80546833       -1.85130426
 C            0.36989335        2.81852947       -1.60538661
 C           -0.94095279        2.95818119       -2.21526626
 C            2.31050590        1.41731133       -2.05724749
 C            2.57574365        0.05019685       -2.46222579
 C            1.45954145       -0.77559467       -2.88652706
 C            1.15955539        2.02462761       -2.52628047
 C           -2.26212825        1.15836610       -2.95576757
 C           -1.06187325        1.92328371       -3.23335925
 C            0.26296342       -0.15863797       -3.24295655
 C            0.21562240        1.23629508       -3.30698939
 C           -0.94222419       -2.11016872       -2.35412876
 C           -2.24179679       -2.19373769       -1.71189623
 C           -2.98898167       -0.99507948       -2.04530360
 C           -0.91860648       -0.89614879       -3.15804498
 C           -2.20498796       -0.22790137       -2.99910070
