56
Modified xyz file
 C            1.23956108        0.09216615        3.89230109
 C            2.41250657       -0.02059784        3.05008237
 C            2.48433441       -1.39816292        2.60893102
 C            0.41300409       -1.08417158        3.65309926
 C            1.17661916       -1.99574571        2.82553492
 C           -0.86881159       -0.62360558        3.16181798
 C            0.39259101        1.25218594        3.72689340
 C           -0.96389509        0.77360757        3.51081854
 C            0.67469152        2.17665033        2.64358105
 C            2.51605434        0.81856805        1.86542901
 C            1.56220161        1.80787327        1.62838570
 C            3.01446516       -1.39971867        1.25653026
 C            2.94202803       -0.02995001        0.76437439
 C            2.60474640       -2.42136629        0.41455243
 C            0.56230753       -2.61102286        1.73885763
 C            1.41303175       -3.16586311        0.78559195
 C           -1.27790114       -1.03175997        1.89646384
 C           -0.72019433       -2.18943421        1.34795631
 C           -2.08136857       -0.19095033        1.10327304
 C           -1.57840623        1.67079542        2.55898044
 C           -0.61428886        2.72480765        2.27643062
 C           -2.30513466        1.14545018        1.49470202
 C           -0.72487756        3.38919407        1.06643556
 C            1.28670077        2.19099593        0.31233219
 C            0.32374147        3.17848719        0.08043488
 C            2.43381111        0.21422937       -0.50975448
 C            1.76519492        1.41991535       -0.75520147
 C            2.48433907       -2.14915276       -1.00330852
 C            2.37250744       -0.83257696       -1.44217043
 C            0.86283534       -3.74053925       -0.42447412
 C            1.57517638       -3.14680814       -1.54592492
 C           -1.32689884       -2.75120632        0.23071897
 C           -0.55368186       -3.59145124       -0.66774495
 C           -2.57448427       -0.66322640       -0.12691796
 C           -2.18719699       -1.91900343       -0.58590409
 C           -3.01352398        0.23992481       -1.08922342
 C           -2.77062938        2.07077386        0.56411765
 C           -1.98936979        3.27894952        0.36255746
 C           -3.21932710        1.62257830       -0.73297148
 C           -0.27896723        3.31327411       -1.23799839
 C           -1.71857819        3.39942847       -1.05750689
 C           -2.57091091        2.44728522       -1.74343864
 C            1.41442940        1.75906320       -2.05917795
 C            0.23228233        2.56645421       -2.29050311
 C            1.80616179       -0.61231848       -2.69478226
 C            1.42836964        0.73179550       -3.07769988
 C            0.59274517       -2.73458987       -2.53446654
 C           -0.71958840       -3.07352398       -2.01598909
 C           -1.74113388       -2.04328240       -1.96795062
 C            0.75993616       -1.50920572       -3.16533746
 C           -2.40040759        0.20443462       -2.40708715
 C           -1.97463712        1.56022989       -2.72511525
 C           -0.66679762        1.78385331       -3.13329081
 C            0.09264899        0.66555217       -3.65359770
 C           -1.59195877       -0.88540096       -2.72945119
 C           -0.40605272       -0.68388867       -3.44419517
