56
Modified xyz file
 C            1.32323420        0.03353516        4.40441252
 C            0.57274378       -1.14482389        4.01628539
 C            1.48600310       -2.02310370        3.32263571
 C            2.58582135        0.01145878        3.67702375
 C            2.65853460       -1.24230086        2.95860892
 C            2.67883619        1.24165290        2.92134447
 C            0.57891921        1.19577271        3.95672483
 C            1.50850675        2.04323392        3.24752084
 C           -0.62528867       -0.71353226        3.31248613
 C           -0.60916296        0.73908635        3.24796298
 C           -1.04405382       -1.41887332        2.18769808
 C            1.00952112       -2.65524857        2.11403002
 C           -0.33745315       -2.56659542        1.78761582
 C            2.73188343       -1.22908719        1.50332328
 C            1.96112819       -2.36977225        1.05554881
 C            2.76860918        1.18408763        1.46713507
 C            2.62022167       -0.02880281        0.80039177
 C            1.05379591        2.63644033        2.01338109
 C            2.03164600        2.32820652        0.98530290
 C           -0.97764351        1.36871086        2.05308271
 C           -0.28572487        2.52339249        1.65701291
 C           -1.84255787       -0.74906278        1.25654299
 C           -1.69988873        0.63421547        1.09634205
 C           -2.48480869       -1.49494039        0.27827385
 C           -0.68514249       -3.16002855        0.58188237
 C           -1.94755139       -2.80266082       -0.02552808
 C            1.47471686       -2.38394976       -0.24504426
 C            0.32142568       -3.13427955       -0.46903420
 C            2.03744071       -0.04133335       -0.47191459
 C            1.70940340       -1.27222017       -1.05803727
 C            1.56545411        2.34220215       -0.32093119
 C            1.64630396        1.16582758       -1.08473320
 C           -0.60607443        3.09189231        0.43473140
 C            0.47577276        3.17496805       -0.53101427
 C           -2.11430410        1.25700129       -0.09122650
 C           -1.73935096        2.58142246       -0.30149586
 C           -2.84913380       -0.86806369       -0.97758252
 C           -2.63981175        0.49619926       -1.15055579
 C           -1.78258251       -2.89628499       -1.46436136
 C           -0.36146461       -3.03033981       -1.74422154
 C           -2.50843720       -1.79026291       -2.05779806
 C            1.26169106       -1.30752476       -2.37389018
 C            0.20090441       -2.24006661       -2.73760070
 C            1.05613702        1.13779858       -2.36106298
 C            1.01662856       -0.06094840       -3.07247294
 C           -0.11937774        3.22320180       -1.84042234
 C           -1.55494125        3.07305719       -1.65272770
 C            0.28320569        2.22128499       -2.79841244
 C           -2.66139292        1.00290257       -2.45414950
 C           -2.04109336        2.27446000       -2.75116556
 C           -0.89964327        1.98768642       -3.60709980
 C           -2.05200873       -1.27437287       -3.26402128
 C           -0.68304646       -1.56244961       -3.67130389
 C           -0.05311117       -0.30594501       -4.03098872
 C           -2.30495648        0.12313115       -3.55317147
 C           -1.10848204        0.67404538       -4.17533251
