56
Modified xyz file
 C            1.41912484       -0.28278099        4.48100211
 C            0.60340801       -1.46196068        4.25102342
 C            1.20623581       -2.21041789        3.16516396
 C            2.50876234       -0.29873115        3.51801881
 C            2.31036808       -1.43315386        2.63703459
 C            2.58276168        1.01883550        2.93232322
 C            0.60579964        0.88381261        4.18525427
 C            1.40801572        1.76465048        3.36753665
 C           -0.69950040       -1.02123743        3.78538431
 C           -0.66556295        0.42323104        3.65655287
 C            0.14460730       -2.57322764        2.24448942
 C           -1.03351131       -1.80096057        2.60293721
 C            0.45342924       -2.65962171        0.89519323
 C            2.36989961       -1.26694395        1.25381333
 C            1.70771788       -2.20958923        0.46987231
 C            2.64886212        1.13106409        1.48775469
 C            2.65113476       -0.01074754        0.68926284
 C            0.80460482        2.33817893        2.18096837
 C            1.76883462        2.21536703        1.11107873
 C           -1.16584521        0.97458734        2.47932525
 C           -0.52644995        2.06981487        1.87542894
 C           -1.73748818       -1.17535141        1.57343301
 C           -2.01780843        0.18639876        1.70400539
 C           -0.60340482       -2.59311535       -0.00595314
 C           -1.66609856       -1.72578442        0.28689864
 C           -0.34238672       -2.97051049       -1.31646978
 C            1.98368625       -2.22145103       -0.89076451
 C            1.02477054       -2.85074939       -1.78133581
 C            2.43178546        0.16673352       -0.68195024
 C            2.38623076       -0.96594916       -1.49511083
 C            1.27891255        2.22860425       -0.18379449
 C            1.84023502        1.36003129       -1.12095456
 C           -0.97979775        2.47621273        0.61819159
 C           -0.02375237        2.68246087       -0.38947373
 C           -2.74408725        0.81354360        0.70567869
 C           -2.27534249        2.10955470        0.26611642
 C           -2.40629267       -1.12977202       -0.74434474
 C           -3.07756068        0.06287793       -0.48918090
 C           -1.21140395       -2.51495818       -2.37823845
 C           -2.21629066       -1.52211742       -2.06839427
 C            1.00929217       -2.10255203       -3.02486066
 C            1.79126341       -0.89437194       -2.82197150
 C           -0.37394709       -1.98694729       -3.44724684
 C            1.46730267        1.50269145       -2.45589166
 C            1.30669511        0.32206124       -3.28454370
 C           -0.41993920        2.95455991       -1.69767813
 C            0.38393717        2.41798053       -2.78281732
 C           -2.74521360        2.30765896       -1.09077324
 C           -3.25398563        1.02863097       -1.56362276
 C           -1.81315529        2.80897418       -2.07564611
 C           -2.16200423       -0.51378315       -3.11689255
 C           -0.88965742       -0.67893213       -3.80727091
 C           -0.01027013        0.39593530       -3.90779624
 C           -0.51145601        1.74374784       -3.71093635
 C           -2.65608282        0.76060956       -2.85959814
 C           -1.86938183        1.92690857       -3.23023074
