56
Modified xyz file
 C            1.50551307        0.12685421        4.21418644
 C            0.68240328       -1.06713806        4.12047376
 C            1.42235242       -2.04866031        3.35176369
 C            2.59859973       -0.01663547        3.26730044
 C            2.62681493       -1.40023957        2.85075728
 C            2.44763261        1.01082354        2.24697388
 C            0.70188810        1.25309742        3.78038429
 C            1.42359463        1.92968095        2.71890407
 C           -0.63699751       -0.66952267        3.66219503
 C           -0.64188827        0.77578838        3.49614699
 C           -1.29884873       -1.45476063        2.72770473
 C            0.77062524       -2.70398320        2.22691013
 C           -0.57848234       -2.48995095        1.99145147
 C            2.70962969       -1.67814653        1.43504613
 C            1.69047807       -2.65808158        1.10788935
 C            2.48538249        0.65392859        0.89229641
 C            2.90880795       -0.63580507        0.53395350
 C            1.82770472        1.46502582       -0.04935139
 C            0.67550825        2.61843817        1.78200893
 C            1.05507096        2.53389152        0.38492641
 C           -1.32588796        1.34178890        2.42019513
 C           -0.76931930        2.47063830        1.81456436
 C           -2.21058136       -0.81723830        1.79862383
 C           -2.26383723        0.57393436        1.71623236
 C           -1.05969976       -2.47872987        0.61915644
 C           -2.20738082       -1.59669034        0.56938570
 C            1.21546817       -2.65455574       -0.20139075
 C           -0.15882332       -2.46920536       -0.44182165
 C            2.88327039       -0.99753394       -0.80623601
 C            2.11940816       -2.18737974       -1.14816159
 C            1.74867942        1.07192945       -1.38751878
 C            2.52962251       -0.00525802       -1.79453380
 C            0.69909081        1.54185267       -2.20321950
 C           -0.11250581        2.91114209       -0.38673791
 C           -1.25584591        2.90312405        0.52179247
 C           -0.26940644        2.41293678       -1.67711063
 C           -2.91865185        1.12643568        0.61599357
 C           -2.46140805        2.39576908        0.07141518
 C           -2.51946044       -0.95030045       -0.61882356
 C           -3.20419340        0.26046920       -0.51632261
 C           -0.59679023       -1.99738237       -1.68905605
 C           -1.78134853       -1.23938306       -1.77688110
 C            1.69100873       -2.04866342       -2.51902136
 C            2.17241980       -0.75561361       -2.98122280
 C            0.27284113       -2.07542999       -2.78026172
 C            0.53502093        1.03506416       -3.49840123
 C            1.16026610       -0.21877277       -3.85764418
 C            0.08803589       -1.20247601       -3.91967042
 C           -2.13569412       -0.62001811       -2.98192717
 C           -0.79801026        0.94349721       -4.05664201
 C           -1.14882015       -0.46882900       -4.03017903
 C           -1.54745633        2.46525201       -2.24116647
 C           -2.69485798        2.36775063       -1.36064196
 C           -3.35562506        1.11201576       -1.67648185
 C           -1.86847066        1.65207399       -3.39531188
 C           -2.82684636        0.65318124       -2.94289456

