56
Modified xyz file
 C            1.54505850        0.08028700        4.01158422
 C            0.74118755       -1.12916017        4.03878251
 C            1.45831801       -2.15041029        3.29871291
 C            2.61697144       -0.12501992        3.05301006
 C            2.62352113       -1.52299190        2.68995973
 C            2.46322865        0.85773976        1.99839558
 C            0.70867441        1.15705570        3.51110938
 C            1.35042544        1.72236034        2.33915357
 C           -0.60665675       -0.77905741        3.62614255
 C           -0.64253517        0.65223014        3.36202724
 C           -1.30490424       -1.63314771        2.78100818
 C            0.76190342       -2.88759615        2.25624643
 C           -0.60710907       -2.70612090        2.07951078
 C            2.61806250       -1.86777901        1.28178797
 C            1.63428536       -2.91585699        1.09440117
 C            2.60005593        0.48208435        0.66758907
 C            2.71889904       -0.87160091        0.31109974
 C            2.15686191        1.38217953       -0.29524186
 C            0.53579188        2.17386734        1.30438705
 C            1.04071180        2.18252838       -0.00102507
 C           -1.39552607        1.12226787        2.28936165
 C           -0.84530496        2.12925678        1.48551142
 C           -2.27814970       -1.06724574        1.86452788
 C           -2.41385871        0.31356258        1.77112677
 C           -1.18231742       -2.81818059        0.74622467
 C           -2.24594755       -1.83703796        0.63221249
 C            1.08721520       -3.07906059       -0.17134216
 C           -0.36056498       -3.05338051       -0.34455610
 C            2.48634068       -1.23461927       -1.01865992
 C            1.66214128       -2.33425792       -1.28028083
 C            2.50704213        1.12409474       -1.61115383
 C            2.64046250       -0.26517238       -2.00602927
 C            1.83990667        1.83840538       -2.67541608
 C            0.24775579        2.71878486       -1.02923468
 C            0.60809951        2.53143191       -2.36644885
 C           -1.65040274        2.74301620        0.53859369
 C           -1.06802673        3.09094711       -0.74803386
 C           -3.17106010        0.79970045        0.71095419
 C           -2.95590942        2.16750528        0.29158809
 C           -2.46795944       -1.16332132       -0.56877435
 C           -3.24846062       -0.01269854       -0.49670260
 C           -0.64528518       -2.37944274       -1.60155574
 C            0.62156397       -2.23047615       -2.29245499
 C           -1.57628117       -1.33938279       -1.64267893
 C            1.92868429       -0.42950457       -3.26051246
 C            1.56280596        0.89007472       -3.74076214
 C            0.73891235       -1.25935074       -3.27032867
 C           -0.40098602        2.08123838       -3.32141512
 C           -1.50834993       -0.40358210       -2.69076525
 C            0.12918130        0.89474959       -3.96012235
 C           -0.39709719       -0.39162683       -3.53808169
 C           -2.07995535        2.86205949       -1.76447841
 C           -3.22662668        2.24041033       -1.13144601
 C           -3.31231838        0.87840351       -1.63222215
 C           -1.71958583        2.04055192       -2.89987588
 C           -2.32288919        0.73028847       -2.67540971
