56
Modified xyz file
 C            1.38172713       -0.04302397        3.51864668
 C            2.53278141       -0.41836950        2.73300605
 C            2.46697018       -1.85188684        2.50797021
 C            0.51423800       -1.20902796        3.62888098
 C            1.15592981       -2.31080861        2.94100275
 C           -0.81270183       -0.79301696        3.20895909
 C            0.55564596        1.05658815        3.05909133
 C           -0.81653769        0.65645355        3.29170325
 C            0.85726814        1.71844833        1.86705749
 C            2.73041002        0.21907852        1.44741327
 C            1.88485630        1.24289874        1.03315473
 C            2.88820708       -2.10411729        1.13942331
 C            3.07897495       -0.81099893        0.48841921
 C            2.29231470       -3.14326926        0.43645937
 C            0.39899126       -3.09524559        2.08030615
 C            1.05346463       -3.71638013        0.94020009
 C           -1.41382226       -1.40920111        2.10837451
 C           -0.90908224       -2.62115515        1.63697283
 C           -2.25731207       -0.65087363        1.28632697
 C           -1.80763593        1.34450099        2.61873402
 C           -2.70161502        0.57974813        1.77431356
 C           -0.11541190        2.57525525        1.33592696
 C           -1.42211316        2.49708367        1.82452809
 C            0.12841263        3.21640508        0.12130965
 C            1.88522911        1.58449371       -0.31644881
 C            1.23546723        2.75514576       -0.69349695
 C            2.70501980       -0.63314072       -0.84362067
 C            2.27170657        0.62813999       -1.27223005
 C            2.16712413       -3.03204544       -1.00257575
 C            2.41976819       -1.74887034       -1.63487212
 C            0.09947374       -3.74503706       -0.15478563
 C           -1.02609035       -2.91477213        0.22192648
 C            0.81333304       -3.42884246       -1.36866300
 C           -2.30250348       -0.92433379       -0.09231491
 C           -1.46745185       -1.90295566       -0.62435321
 C           -2.93977320       -0.05944253       -0.97583111
 C           -3.33849345        1.53508827        0.88862505
 C           -2.53915429        2.75304754        0.93184584
 C           -3.52574266        1.17549626       -0.49654278
 C           -0.97797223        3.53668723       -0.77629304
 C           -2.26981736        3.16012978       -0.43219005
 C           -2.99885494        2.25742044       -1.31001451
 C            0.89347984        2.98789762       -2.08167584
 C           -0.52160396        3.31079538       -2.13815522
 C            1.85845389        0.75388022       -2.60016136
 C            1.14343834        1.93678061       -3.03860447
 C            1.43041408       -1.62739618       -2.69045588
 C            0.28753053       -2.39019721       -2.23324463
 C           -0.87162515       -1.69568366       -1.88114056
 C            1.19377113       -0.37354429       -3.22000432
 C           -2.29835764        0.21572299       -2.24670317
 C           -2.30925675        1.66262397       -2.44343695
 C           -1.17845065        2.29390245       -2.94527366
 C           -0.14222081        1.48802720       -3.55817787
 C           -1.17583069       -0.53291522       -2.60067416
 C           -0.18497027        0.04481180       -3.39863720
