56
Modified xyz file
 C            1.27509647       -0.21521397        3.80396726
 C            2.47950446       -0.42511219        3.02401918
 C            2.39761419       -1.74811552        2.42653692
 C            0.42301962       -1.38360593        3.63367952
 C            1.09026306       -2.29796461        2.72669925
 C           -0.91321280       -0.91405607        3.30975539
 C            0.46450820        0.96372696        3.55138561
 C           -0.92071307        0.53078625        3.49197198
 C            0.91684806        1.93760568        2.66599254
 C            2.81676384        0.51896274        1.97190966
 C            2.10665986        1.70374857        1.85448625
 C            2.80867066       -1.63540990        1.03927413
 C            3.12654334       -0.24036073        0.77386558
 C            2.14176044       -2.36090777        0.05677073
 C            0.36049479       -2.88245349        1.70170262
 C            0.96315796       -3.04248163        0.38448030
 C           -1.61001794       -1.47830222        2.23928728
 C           -1.03772292       -2.51772782        1.50556095
 C           -2.68905724       -0.78505746        1.69459737
 C           -1.84909773        1.29154756        2.79381031
 C           -2.90632509        0.59699552        2.08521752
 C           -0.04052196        2.67432211        1.85393635
 C           -1.39294926        2.38515420        1.94390755
 C            1.85853626        2.24833352        0.53316381
 C            0.55314748        2.89079287        0.54718589
 C            2.83810072        0.27997194       -0.48862656
 C            2.25304775        1.55008143       -0.60810229
 C            2.37290241       -1.99875647       -1.26661516
 C            2.76223175       -0.62486496       -1.54785463
 C            1.43793648       -2.41492356       -2.29450653
 C           -0.13172549       -3.12276155       -0.57547509
 C           -1.32941505       -2.63274003        0.08363578
 C            0.09507905       -2.78912615       -1.89982357
 C           -2.96023224       -0.88891462        0.26700413
 C           -2.12002267       -1.66469213       -0.53168985
 C           -3.21427679        1.35604698        0.88804422
 C           -2.19820126        2.38383053        0.73468252
 C           -3.41124037        0.41412375       -0.19848870
 C           -0.22693613        2.84057854       -0.60642723
 C           -1.59911898        2.54340133       -0.51606782
 C            1.70987940        1.95894190       -1.82610663
 C            0.45190717        2.69120771       -1.81649343
 C            2.16110043       -0.23623523       -2.81083242
 C            1.34051440       -1.34482118       -3.27166279
 C            1.69043877        1.05749375       -2.96543026
 C           -0.83103742       -1.89277503       -2.57319470
 C           -1.86747039       -1.28885346       -1.85735871
 C           -0.06777559       -1.11492791       -3.54197219
 C           -3.06382157        0.82008624       -1.47507070
 C           -2.28985729        2.04181387       -1.62328625
 C           -2.47398983       -0.14714645       -2.37866276
 C           -0.26719121        2.36149114       -3.02975352
 C            0.44460290        1.27765064       -3.68698177
 C           -0.48454314        0.17062300       -3.86248521
 C           -1.65523185        1.98311005       -2.92444251
 C           -1.78862466        0.61587925       -3.40911935
