56
Modified xyz file
 C            1.41480235        0.02078162        4.24075020
 C            0.59467108       -1.17457117        4.18937154
 C            1.27141521       -2.14133823        3.34714552
 C            2.51484115       -0.15565200        3.30563595
 C            2.43771247       -1.49080928        2.76589885
 C            2.47642689        0.94994619        2.37620033
 C            0.60553685        1.13310381        3.76767995
 C            1.33459841        1.78449799        2.71315473
 C           -0.75214543       -0.77235973        3.83050340
 C           -0.71286114        0.63800273        3.45872531
 C           -1.52239035       -1.63388560        3.06217733
 C            0.52429034       -2.76307284        2.26691542
 C           -0.85856946       -2.63481077        2.22754751
 C            2.36341138       -1.64628605        1.32389597
 C            1.27987487       -2.56928207        1.04276540
 C            2.73255555        0.73800441        1.02143670
 C            2.53678190       -0.54451532        0.47519407
 C            2.51423238        1.84371021        0.20829204
 C            0.63823497        2.34422246        1.65171639
 C            1.44456330        2.74822982        0.60017908
 C           -1.33989678        1.05162205        2.27939537
 C           -0.66178294        1.87676971        1.35958699
 C           -2.58642971       -1.05236113        2.26968899
 C           -2.45727356        0.33673178        1.86323712
 C           -1.52426178       -2.64505137        0.93554212
 C           -2.72046913       -1.84895106        1.06500193
 C            0.61749202       -2.42749563       -0.16741452
 C           -0.77902580       -2.50899253       -0.23337831
 C            2.10509484       -0.67575302       -0.85642752
 C            1.28807554       -1.76893869       -1.18815877
 C            2.42839375        1.67624612       -1.22412163
 C            2.23820917        0.40340104       -1.74392945
 C            0.83051151        3.26243281       -0.59462117
 C            1.60007781        2.76141229       -1.71957422
 C           -1.21967170        2.10772538        0.08084446
 C           -0.55316082        2.93161966       -0.83133180
 C           -2.88810270        0.41734220        0.48582013
 C           -3.03528634       -0.94319996       -0.01549525
 C           -2.32682006        1.36720364       -0.35920314
 C           -1.41949210       -2.06128767       -1.39857617
 C           -2.53661446       -1.21005844       -1.28398968
 C            0.76550309       -1.89153046       -2.46569051
 C           -0.67083313       -2.06833693       -2.57929138
 C            1.75662714        0.29644302       -3.04998543
 C            1.18759602       -0.95949774       -3.48316163
 C            0.66940773        2.47523597       -2.79101470
 C           -0.67657433        2.67875590       -2.25730619
 C            0.92615035        1.36836578       -3.59003651
 C           -2.53267574        1.17828825       -1.72886636
 C           -2.70638292       -0.18296219       -2.20568133
 C           -1.72415260        1.88707274       -2.70442115
 C           -1.11975939       -1.30740837       -3.73130726
 C            0.04333403       -0.67506556       -4.33154850
 C           -0.17357528        0.76099279       -4.31377139
 C           -2.11824220       -0.28666343       -3.52216806
 C           -1.52397227        1.00197683       -3.84383079
