56
Modified xyz file
 C            1.42838921        0.13580768        4.12166234
 C            0.62491127       -1.04271136        3.86007061
 C            1.47528051       -1.98192233        3.16989181
 C            2.56146539        0.09430142        3.21020208
 C            2.65725553       -1.25466180        2.71559966
 C            2.38661889        1.17060881        2.25455189
 C            0.63534155        1.29397975        3.76074141
 C            1.44001033        2.09265263        2.85966105
 C           -0.59633737       -0.61271345        3.20597515
 C           -0.65785319        0.83691482        3.27499752
 C           -1.00771417       -1.23218589        2.03369117
 C            0.94575213       -2.66768743        2.00755370
 C           -0.32540076       -2.35096624        1.52432912
 C            2.74276825       -1.46455906        1.28519545
 C            2.03487836       -2.70570867        1.05780979
 C            2.28286781        0.89170865        0.88284194
 C            2.52092309       -0.40443365        0.39635922
 C            1.70766674        1.85765815        0.04893131
 C            0.76054441        2.94636223        2.01721271
 C            1.19202036        3.01628998        0.64023074
 C           -1.23561458        1.54772767        2.21966594
 C           -0.68272497        2.79579327        1.93254580
 C           -1.91368480       -0.55858555        1.22563006
 C           -1.91134726        0.84690419        1.20348359
 C           -2.56032123       -1.28418212        0.23778020
 C           -0.66662820       -2.83252136        0.25317385
 C           -1.87399273       -2.43253903       -0.32299205
 C            1.72604048       -3.02670883       -0.24501294
 C            0.34674449       -3.35867926       -0.55398172
 C            2.19261423       -0.72568871       -0.92697690
 C            2.11514121       -2.08213302       -1.26909946
 C            1.36697973        1.52923803       -1.27096424
 C            1.62069650        0.24554706       -1.76137367
 C            0.58784788        2.40126431       -2.04181217
 C            0.14115251        3.76091145       -0.02026844
 C           -1.08031079        3.49152256        0.72944428
 C           -0.12944291        3.48376230       -1.40791214
 C           -2.42389419        1.54140857        0.08928050
 C           -1.99848343        2.84118949       -0.17512680
 C           -1.54260444        3.16135703       -1.51538850
 C           -3.22594935       -0.58466920       -0.83535877
 C           -3.00729296        0.83772525       -0.96310530
 C           -2.01926754       -2.36972600       -1.77360387
 C           -2.84312573       -1.21457652       -2.08852342
 C            0.24402011       -3.26633560       -2.00059522
 C            1.39976942       -2.50276413       -2.45649477
 C           -0.93884715       -2.67511934       -2.59075009
 C            1.11408121       -0.10416626       -3.01934377
 C            0.93399246       -1.49539419       -3.37407488
 C           -0.49115989       -1.70600637       -3.57952657
 C           -0.32937219        1.84891773       -3.02036923
 C           -1.67519500        2.14840353       -2.54793414
 C           -2.56075471        1.10100213       -2.32590351
 C           -2.31928238       -0.18047141       -2.96673293
 C           -0.05122641        0.59264118       -3.52949483
 C           -1.11794572       -0.39378307       -3.63579253
