56
Modified xyz file
 C            1.35723376       -0.04105805        3.53603161
 C            2.56166686       -0.33112012        2.79734235
 C            2.47698010       -1.70294382        2.32305699
 C            0.51165830       -1.22419376        3.50025638
 C            1.15036525       -2.20390398        2.63894345
 C           -0.84260046       -0.80049725        3.19587320
 C            0.55290428        1.08746959        3.11826098
 C           -0.82584408        0.63935964        2.99746757
 C            1.03845163        1.99805112        2.18060256
 C            2.88959950        0.50786186        1.66380983
 C            2.20338482        1.70114258        1.44115915
 C            2.92005564       -1.73009314        0.93993443
 C            3.15955594       -0.35697401        0.52482105
 C            2.28890557       -2.59557645        0.06258138
 C            0.40758565       -2.82102646        1.63391386
 C            1.07208584       -3.26959609        0.49202584
 C           -1.61104626       -1.58583180        2.35497904
 C           -0.98361952       -2.67909118        1.62324881
 C           -2.55542731       -0.94385878        1.46098390
 C           -1.63535785        1.22921947        2.02481442
 C           -2.50100452        0.43635437        1.25817991
 C            0.11187602        2.91706576        1.68943861
 C           -1.27878693        2.50308136        1.57637330
 C            0.42915908        3.74389624        0.54400933
 C            2.42019691        2.30507421        0.20326215
 C            1.60644663        3.42286836       -0.22501093
 C            2.77861059        0.07533752       -0.74756008
 C            2.65811586        1.45143148       -0.95043995
 C            2.07992990       -2.17346505       -1.30859128
 C            2.16444917       -0.82041400       -1.63420637
 C            0.31907221       -3.60498724       -0.70381264
 C            0.97765814       -2.96434220       -1.83215191
 C           -1.74199848       -2.87447215        0.39335181
 C           -2.75883046       -1.83576648        0.32802830
 C           -1.09192070       -3.27942211       -0.76548345
 C           -3.12392274       -1.30141492       -0.90108774
 C           -3.12894114        0.97643237        0.13661549
 C           -3.48554744        0.10261703       -0.96967656
 C           -1.79562590        3.01315755        0.31628163
 C           -0.71421353        3.71442546       -0.35367894
 C           -2.62856437        2.20798338       -0.44205125
 C            1.19259207        3.16890877       -1.59625446
 C            1.86472052        1.96684413       -2.05393285
 C           -0.25816952        3.22199461       -1.64216204
 C            1.42859966       -0.34194074       -2.71986940
 C            1.16620059        1.07824367       -2.85193139
 C           -0.03961670       -2.30846556       -2.63324165
 C           -1.33101151       -2.57216921       -2.01488051
 C           -2.34035864       -1.61719107       -2.08681301
 C            0.23103625       -1.04866654       -3.15209080
 C           -2.89966490        0.66032122       -2.17922450
 C           -2.26025122        1.91381849       -1.81943520
 C           -0.96306834        2.18718153       -2.25447822
 C           -0.27106586        1.24739779       -3.02496382
 C           -2.11307414       -0.37774674       -2.81515043
 C           -0.83956420       -0.07131066       -3.27746797
