56
Modified xyz file
 C            1.49924684       -0.00166783        3.93263023
 C            0.67432795       -1.19118514        3.84178075
 C            1.30226996       -2.10577034        2.90118999
 C            2.57395220       -0.13782170        2.96739411
 C            2.37671812       -1.38243563        2.24166941
 C            2.63643421        1.09517726        2.20747896
 C            0.68678026        1.12862689        3.51825142
 C            1.41032907        1.83465119        2.47584273
 C           -0.69280542       -0.76664025        3.59053695
 C           -0.64446956        0.63693884        3.21461872
 C           -1.52141538       -1.62042685        2.87833468
 C            0.48415609       -2.93160023        2.14658043
 C           -0.95380749       -2.85105370        2.34883023
 C            0.71690170       -3.04494327        0.71608639
 C            2.45497103       -1.36272172        0.84788243
 C            1.65951836       -2.23222924        0.08934072
 C            3.07913601        1.02172715        0.89603857
 C            3.08711455       -0.27704376        0.23542298
 C            2.56070945        1.97674884       -0.06558294
 C            0.69388970        2.34990775        1.39785695
 C            1.38982722        2.67158763        0.23000800
 C           -1.24353896        1.05272937        2.02899816
 C           -0.68702856        2.12638745        1.33448570
 C           -2.38620085       -1.06962351        1.84728989
 C           -2.18817850        0.23672767        1.39621090
 C           -1.60063719       -3.12839504        1.07975365
 C           -0.56859502       -3.26945350        0.06790505
 C           -2.62714479       -2.12539070        0.87763604
 C           -0.79556280       -2.73109828       -1.19727605
 C            1.57521192       -2.08121632       -1.29362038
 C            0.30416060       -2.33056696       -1.95778361
 C            2.92886082       -0.04273357       -1.19069481
 C            2.72343584        1.38562916       -1.38352306
 C            2.21189183       -0.95296017       -1.95056392
 C            1.92091318        1.83902487       -2.42343018
 C            0.71930463        3.31879827       -0.80333046
 C            1.05209919        2.97756954       -2.17767505
 C           -1.42111820        2.69641268        0.30440305
 C           -0.72198797        3.44960085       -0.71906244
 C           -2.70985706        0.61493791        0.15320654
 C           -2.43826044        1.89019810       -0.34543643
 C           -2.92698113       -1.76276062       -0.42397316
 C           -2.06960473       -2.24304815       -1.49957047
 C           -3.19871088       -0.36712470       -0.70998628
 C           -2.25621121       -1.33900856       -2.62223265
 C           -3.03269676       -0.20432598       -2.14334977
 C            0.15688150       -1.35007543       -3.02635849
 C            1.32434887       -0.48203373       -3.00339690
 C            1.18151896        0.88299114       -3.23532907
 C           -1.09425279       -0.82160149       -3.31644759
 C           -0.18933117        2.76444241       -2.90246401
 C           -1.28572609        3.09058375       -2.01002823
 C           -2.32082567        2.09927708       -1.78396664
 C           -2.41270311        1.00786102       -2.63872488
 C           -0.13738278        1.44038937       -3.49970678
 C           -1.25987555        0.61803016       -3.44414939
