48
0 1
C       -3.428659    1.479795   -0.004656 
C       -2.434350    2.568950    0.018945 
C       -1.727969    2.448352    1.249619 
C       -3.247325    0.641987    1.197002 
C       -2.133081    1.157339    1.909798 
C       -3.279095   -0.723902    0.748230 
C       -3.246808    0.682945   -1.165071 
C       -3.274079   -0.706943   -0.747359 
C       -1.716045    2.491903   -1.230134 
C       -2.109405    1.218091   -1.902434 
C       -0.383171    2.864088   -1.224958 
C       -0.385578    2.824990    1.264800 
C        0.188205    3.263811    0.037777 
C        0.631868    2.023488    1.979884 
C       -1.111597    0.276174    2.403192 
C        0.289085    0.761292    2.485577 
C       -2.446886   -1.623448    1.407163 
C       -1.357009   -1.110594    2.252809 
C       -1.946041   -2.772450    0.678933 
C       -2.449400   -1.587978   -1.429138 
C       -1.948169   -2.754804   -0.731220 
C       -1.105075    0.350229   -2.397459 
C       -1.353566   -1.060071   -2.264423 
C        0.637159    2.077630   -1.938410 
C        0.295026    0.824034   -2.470545 
C        1.615292    2.902496    0.034988 
C        1.910584    2.248859    1.272450 
C        1.915998    2.281650   -1.216418 
C        2.913869    1.263161    1.263493 
C        1.350810   -0.226197    2.505499 
C        2.633806    0.052718    2.012150 
C       -0.237706   -2.075374    2.112747 
C       -0.580597   -3.056678    1.124463 
C        1.059590   -1.631209    2.180532 
C       -0.581841   -3.026542   -1.186880 
C       -0.242824   -2.019966   -2.155033 
C        0.260777   -3.203488   -0.035208 
C        1.353547   -0.164785   -2.508793 
C        1.058341   -1.575553   -2.212902 
C        2.916602    1.295959   -1.228513 
C        3.505328    0.889495    0.013208 
C        2.633274    0.100683   -2.004278 
C        3.102022   -1.119829    1.201922 
C        2.062036   -2.092832    1.201354 
C        1.599080   -2.677585   -0.031182 
C        2.060976   -2.064632   -1.243818 
C        3.629217   -0.623748   -0.005874 
C        3.103785   -1.091511   -1.221827 
