48
0 1
C        4.035896   -0.610052   -0.386790 
C        3.641237   -1.546405    0.666527 
C        3.089412   -0.717474    1.780940 
C        3.699934    0.690751    0.029763 
C        3.097644    0.644354    1.389886 
C        2.948993    1.373009   -1.041909 
C        3.170169   -0.915538   -1.572224 
C        2.627901    0.334631   -2.056698 
C        2.575077   -2.330878    0.188330 
C        2.275636   -1.960208   -1.212158 
C        1.832972   -1.319020    2.178328 
C        1.455534   -2.321677    1.147807 
C        0.845323   -0.492003    2.660033 
C        1.980150    1.499819    1.698324 
C        0.938556    0.961987    2.499956 
C        1.996524    2.293439   -0.713268 
C        1.577894    2.480528    0.712811 
C        0.778730    2.447369   -1.538335 
C        1.357479    0.318014   -2.607721 
C        0.434424    1.452902   -2.444849 
C        0.911184   -1.920074   -1.622630 
C        0.550584   -0.888420   -2.516815 
C        0.144865   -2.438271    0.732242 
C       -0.144867   -2.438240   -0.732319 
C       -0.550589   -0.888505    2.516786 
C       -0.911193   -1.920134    1.622569 
C       -0.434423    1.452817    2.444898 
C       -1.357480    0.317922    2.607732 
C        0.267608    2.963272    0.700975 
C       -0.267619    2.963295   -0.700874 
C       -0.778736    2.447311    1.538418 
C       -1.577900    2.480547   -0.712726 
C       -1.996532    2.293405    0.713345 
C       -0.938554    0.962071   -2.499927 
C       -0.845314   -0.491909   -2.660052 
C       -1.980152    1.499868   -1.698273 
C       -1.455520   -2.321643   -1.147887 
C       -1.832956   -1.318948   -2.178358 
C       -2.275634   -1.960257    1.212098 
C       -2.575073   -2.330876   -0.188405 
C       -2.627907    0.334561    2.056707 
C       -2.948998    1.372966    1.041950 
C       -3.170170   -0.915585    1.572186 
C       -3.097642    0.644391   -1.389866 
C       -3.089409   -0.717416   -1.780969 
C       -3.641231   -1.546378   -0.666581 
C       -3.699931    0.690740   -0.029742 
C       -4.035895   -0.610058    0.386762 
