48
0 1
C        4.093190   -0.722741   -0.095533 
C        4.093192    0.722737    0.095531 
C        3.344635    1.011441    1.252827 
C        3.326737   -1.305163    1.055517 
C        2.828099   -0.246015    1.854207 
C        2.391530   -2.270063    0.513843 
C        3.344635   -1.011444   -1.252829 
C        2.380384   -2.081131   -0.961015 
C        3.326739    1.305160   -1.055518 
C        2.828100    0.246012   -1.854209 
C        2.380387    2.081130    0.961014 
C        2.391532    2.270061   -0.513843 
C        1.181641    2.093545    1.619441 
C        1.479377   -0.289242    2.368989 
C        0.706048    0.927422    2.420041 
C        1.182133   -2.440330    1.159590 
C        0.728649   -1.471224    2.165521 
C       -0.000007   -2.841938    0.400105 
C        1.181637   -2.093547   -1.619442 
C       -0.000002   -2.661332   -0.975948 
C        1.479377    0.289239   -2.368990 
C        0.706045   -0.927423   -2.420042 
C        1.182135    2.440330   -1.159589 
C        0.728650    1.471223   -2.165521 
C        0.000003    2.661333    0.975949 
C       -0.000004    2.841939   -0.400104 
C       -0.706048    0.927418    2.420031 
C       -1.181630    2.093565    1.619447 
C       -0.728647   -1.471225    2.165530 
C       -1.182136   -2.440317    1.159597 
C       -1.479378   -0.289231    2.368987 
C       -2.391527   -2.270047    0.513814 
C       -1.181635   -2.093562   -1.619445 
C       -0.706051   -0.927416   -2.420029 
C       -2.380389   -2.081119   -0.961059 
C       -0.728646    1.471227   -2.165530 
C       -1.182133    2.440318   -1.159597 
C       -1.479378    0.289234   -2.368984 
C       -2.380386    2.081123    0.961062 
C       -2.391523    2.270046   -0.513814 
C       -2.828105   -0.246031    1.854225 
C       -3.326748   -1.305158    1.055510 
C       -3.344633    1.011429    1.252860 
C       -3.344632   -1.011425   -1.252858 
C       -2.828104    0.246034   -1.854222 
C       -3.326745    1.305159   -1.055514 
C       -4.093185   -0.722734   -0.095555 
C       -4.093183    0.722732    0.095549 
