48
0 1
C        3.825814   -0.869273   -1.115656 
C        4.083938   -0.677527    0.234321 
C        3.752087    0.724702    0.601721 
C        3.257545    0.393355   -1.679296 
C        3.349272    1.407613   -0.622467 
C        1.998828    0.095721   -2.226429 
C        2.770328   -1.911078   -1.262881 
C        1.708973   -1.354847   -1.998933 
C        3.179722   -1.558847    1.036873 
C        2.483600   -2.412252    0.087771 
C        2.845896    0.671219    1.698733 
C        2.422916   -0.746277    1.913964 
C        1.871496    1.676631    1.814349 
C        2.305318    2.321004   -0.537355 
C        1.778916    2.624766    0.767253 
C        0.897022    1.024858   -2.152211 
C        1.133839    2.213705   -1.438912 
C       -0.479392    0.530497   -2.322639 
C        0.354197   -1.768026   -1.769742 
C       -0.760773   -0.915976   -2.180802 
C        1.168218   -2.708897    0.368162 
C        0.155671   -2.648856   -0.689981 
C        1.036924   -1.036885    2.190093 
C        0.511556   -2.182524    1.561815 
C        0.491948    1.377620    2.273821 
C        0.084920    0.055384    2.487499 
C        0.348970    2.999292    0.623592 
C        0.002518    2.860109   -0.750850 
C       -0.421634    2.322566    1.610383 
C       -1.529031    1.420902   -2.045985 
C       -1.292331    2.485724   -1.045330 
C       -2.876042    0.978472   -1.811991 
C       -2.055920   -1.355079   -1.854262 
C       -3.194753   -0.422059   -1.804564 
C       -1.140631   -2.721305   -0.036978 
C       -0.926831   -2.363589    1.363578 
C       -2.262688   -2.283476   -0.720456 
C       -1.333973   -0.190723    2.395910 
C       -1.837125   -1.512741    1.972872 
C       -1.778922    1.999575    1.329904 
C       -2.271677    2.313331    0.018591 
C       -3.353372    1.545004   -0.561406 
C       -2.275015    0.801489    1.956851 
C       -4.038366   -0.703542   -0.696060 
C       -3.390689   -1.797285    0.066572 
C       -3.127272   -1.342972    1.366393 
C       -4.025695    0.502174    0.182931 
C       -3.448301    0.138321    1.401236 
