48
0 1
C        3.670031   -1.407457   -0.382423 
C        3.659614   -0.084575   -1.094000 
C        3.752690    0.910922   -0.100739 
C        3.391509   -1.115279    1.061451 
C        3.486799    0.240484    1.257138 
C        2.130171   -1.794898    1.397512 
C        2.611559   -2.163819   -0.865887 
C        1.720629   -2.535097    0.250832 
C        2.545288   -0.068972   -2.005509 
C        1.967833   -1.437629   -1.983705 
C        1.640901    1.041758   -2.072867 
C        2.905267    2.017520   -0.177565 
C        1.889640    2.128540   -1.176125 
C        2.410144    0.994477    1.907064 
C        2.227751    2.181088    1.157476 
C        1.129533   -1.134898    2.212085 
C        1.249223    0.319086    2.433045 
C       -0.148391   -1.699956    2.174291 
C        0.344681   -2.802515   -0.011420 
C       -0.535126   -2.642527    1.098730 
C        0.639293   -1.628209   -2.183441 
C       -0.178898   -2.498581   -1.301814 
C        0.243294    0.803830   -2.480423 
C       -0.223820   -0.524862   -2.615800 
C       -0.771348    1.768420   -2.147505 
C        0.748677    2.823033   -0.535052 
C        0.943266    2.741052    0.928845 
C       -0.511096    2.719627   -1.035806 
C        0.049307    1.071779    2.491492 
C       -0.113735    2.295268    1.717102 
C       -1.355892   -0.936759    2.515884 
C       -1.271930    0.447342    2.564530 
C       -1.923667   -2.544599    0.872364 
C       -2.485620   -1.532968    1.831631 
C       -1.551361   -2.140381   -1.490843 
C       -1.592648   -0.925752   -2.347841 
C       -2.466214   -2.274486   -0.424839 
C       -2.127442    1.408360   -2.085898 
C       -2.575723    0.042827   -2.153377 
C       -1.678782    2.683111   -0.134403 
C       -1.482734    2.359996    1.210008 
C       -2.248991    1.275586    1.832336 
C       -2.742242    2.022570   -0.849975 
C       -3.428901   -0.766490    1.176968 
C       -3.505207   -1.255103   -0.260337 
C       -3.563459   -0.159190   -1.087022 
C       -3.317302    0.685227    1.147178 
C       -3.556572    1.093099   -0.233345 
