48
0 1
C        3.558939    0.750736   -0.505164 
C        3.055310    1.742632    0.308701 
C        2.073887    2.559449   -0.482339 
C        2.851708    0.867099   -1.844565 
C        1.840497    1.908258   -1.734123 
C        2.473708   -0.390069   -2.234881 
C        3.497887   -0.648344   -0.096987 
C        2.948225   -1.388938   -1.201493 
C        3.013157   -0.938070    1.200110 
C        2.431242    1.452638    1.594994 
C        2.443919    0.142019    2.049858 
C        1.012576    2.929847    0.377110 
C        1.191838    2.245764    1.678198 
C       -0.259901    3.017367   -0.183787 
C        0.493825    1.650424   -2.153138 
C       -0.487942    2.454458   -1.510480 
C        1.097303   -0.705956   -2.574655 
C        0.091060    0.296000   -2.589954 
C        1.930639   -2.351724   -1.049470 
C        0.836227   -2.018335   -2.000317 
C        2.176415   -2.082474    1.353214 
C        1.580393   -2.762363    0.259514 
C        1.238753   -0.390793    2.711761 
C        1.088968   -1.768958    2.329864 
C        0.069716    1.742424    2.309758 
C        0.077732    0.366298    2.809668 
C       -1.443515    2.761148    0.642102 
C       -1.283720    2.027841    1.819359 
C       -1.869735    2.084589   -1.594027 
C       -2.512061    2.389545   -0.255598 
C       -1.298832   -0.147577   -2.448567 
C       -2.296646    0.834402   -2.042125 
C       -0.458099   -2.379266   -1.719402 
C       -1.553719   -1.499100   -2.096818 
C        0.163569   -2.995259    0.590574 
C       -0.127457   -2.295005    1.885051 
C       -0.780689   -2.979683   -0.397835 
C       -1.233785   -0.224560    2.550137 
C       -2.117026    0.847019    2.067482 
C       -1.350840   -1.550276    2.059563 
C       -3.389974    1.374782    0.043537 
C       -3.418703    0.439196   -1.155787 
C       -3.195601    0.546382    1.230584 
C       -2.661245   -1.851983   -1.197009 
C       -2.131844   -2.563819   -0.087281 
C       -2.443653   -1.829081    1.153499 
C       -3.547573   -0.837177   -0.692635 
C       -3.374932   -0.831511    0.823799 
