48
0 1
C        3.531123    1.026337   -1.317057 
C        3.529780   -0.465665   -1.357969 
C        3.758580   -0.941549   -0.068746 
C        3.532096    1.444437    0.033217 
C        3.786079    0.276957    0.865459 
C        2.313091    2.227287    0.283869 
C        2.288042    1.474943   -1.943438 
C        1.615150    2.340363   -0.998970 
C        2.325314   -0.863224   -2.080423 
C        1.567213    0.366100   -2.447297 
C        1.593149   -1.928612   -1.595400 
C        2.864295   -1.918491    0.529930 
C        1.850092   -2.470221   -0.254862 
C        2.961782    0.008722    1.926360 
C        2.457165   -1.407585    1.829119 
C        1.527161    2.006898    1.446830 
C        1.797654    0.832315    2.270095 
C        0.171443    2.398666    1.380182 
C        0.215512    2.459658   -1.078845 
C       -0.409244    2.845633    0.147030 
C        0.133366    0.393887   -2.464400 
C       -0.527916    1.580641   -1.985826 
C        0.148957   -1.988169   -1.837931 
C       -0.564001   -0.892237   -2.392484 
C        0.544839   -2.775762    0.329462 
C       -0.436832   -2.754080   -0.761517 
C        1.129651   -1.425430    2.252477 
C        0.735591   -0.031906    2.614590 
C        0.162593   -2.247762    1.582585 
C       -0.907635    1.705758    2.135267 
C       -0.653438    0.359924    2.573268 
C       -1.848292    2.767521    0.274098 
C       -2.145598    2.031469    1.559596 
C       -1.964529    1.551711   -1.861389 
C       -2.612130    2.238142   -0.725946 
C       -1.984625   -0.903288   -2.217665 
C       -2.671371    0.360824   -2.071640 
C       -1.800719   -2.664113   -0.489589 
C       -2.603096   -1.855530   -1.349576 
C       -1.229629   -1.944362    1.799771 
C       -1.644806   -0.604336    2.329447 
C       -2.192196   -2.367631    0.889798 
C       -3.167104    1.055100    1.282272 
C       -3.596572    1.263069   -0.104682 
C       -3.724260    0.201164   -0.985610 
C       -3.624978   -1.139590   -0.502037 
C       -2.930762   -0.266079    1.720860 
C       -3.299988   -1.361898    0.837718 
