48
0 1
C        3.846470   -0.759410   -0.500473 
C        3.609364   -0.708125    0.977002 
C        2.802129   -1.793425    1.311595 
C        2.944712   -1.820204   -1.051108 
C        2.409465   -2.506270    0.035254 
C        2.049724   -1.196715   -2.013554 
C        3.495126    0.460460   -1.056604 
C        2.472416    0.230308   -2.109864 
C        3.159172    0.640429    1.289405 
C        3.176705    1.425295    0.030323 
C        2.069128    0.796938    2.144082 
C        1.588782   -1.626409    2.076159 
C        1.278044   -0.366428    2.572201 
C        1.004771   -2.755716    0.097198 
C        0.503184   -2.371388    1.416745 
C        0.688288   -1.526938   -2.044767 
C        0.196710   -2.475902   -1.037409 
C       -0.289788   -0.519016   -2.526324 
C        1.546563    1.198659   -2.340611 
C        0.134994    0.844455   -2.576195 
C        2.225470    2.384858   -0.204442 
C        1.536409    2.417656   -1.510976 
C        1.122191    1.895995    1.941714 
C        1.195515    2.688545    0.804481 
C       -0.127118    0.029037    2.699261 
C       -0.188980    1.457221    2.421977 
C       -0.851187   -2.056721    1.604905 
C       -1.197282   -0.831593    2.346616 
C       -1.187487   -2.577892   -0.783997 
C       -1.721704   -2.485271    0.544384 
C       -1.664864   -0.710425   -2.356992 
C       -2.143941   -1.939482   -1.695082 
C       -2.572543    0.365382   -1.939630 
C       -0.692743    1.878146   -2.040636 
C        0.203410    2.803322   -1.328738 
C       -0.047895    3.049910    0.097059 
C       -2.011793    1.624289   -1.566212 
C       -1.352699    1.995268    1.880410 
C       -1.275270    2.718636    0.597416 
C       -2.363972    2.174975   -0.273216 
C       -2.471738   -0.214370    2.075098 
C       -2.520751    1.183186    1.856178 
C       -3.240405    1.455873    0.564042 
C       -3.089691   -1.964559    0.435413 
C       -3.334867   -1.693555   -1.021626 
C       -3.633036   -0.234239   -1.139026 
C       -3.421400   -0.835848    1.147438 
C       -3.857582    0.251056    0.151127 
