48
0 1
C        3.787387    0.481746   -1.012404 
C        3.475576   -0.968371   -1.105235 
C        3.409819   -1.470685    0.201396 
C        3.722243    0.888766    0.334837 
C        3.532619   -0.300153    1.159514 
C        2.736164    1.979179    0.447671 
C        2.754420    1.196807   -1.783959 
C        2.212601    2.220429   -0.924609 
C        2.329883   -1.106686   -1.984358 
C        1.882323    0.257200   -2.397315 
C        1.351163   -2.024368   -1.646679 
C        2.287914   -2.261377    0.625635 
C        1.356945   -2.670010   -0.331560 
C        2.493957   -0.384032    2.076996 
C        1.767533   -1.674484    1.877695 
C        1.826741    1.962425    1.484366 
C        1.680145    0.769799    2.371662 
C        0.480751    2.514652    1.307992 
C        0.879353    2.552344   -1.103648 
C        0.036506    2.886481    0.048571 
C        0.487785    0.551455   -2.530181 
C        0.050155    1.800789   -2.030703 
C       -0.049919   -1.801116   -2.030424 
C       -0.487496   -0.551860   -2.530149 
C       -0.036507   -2.886471    0.049024 
C       -0.879222   -2.552525   -1.103347 
C        0.438275   -1.782612    2.185915 
C       -0.480901   -2.514443    1.308335 
C        0.332273    0.638737    2.730550 
C       -0.438528    1.782963    2.185583 
C       -0.332590   -0.638302    2.730613 
C       -1.767750    1.674787    1.877226 
C       -1.356903    2.669961   -0.332140 
C       -1.350972    2.024108   -1.647157 
C       -2.287984    2.261480    0.625012 
C       -1.882047   -0.257583   -2.397494 
C       -2.329655    1.106368   -1.984804 
C       -2.212494   -2.220581   -0.924515 
C       -2.754216   -1.197096   -1.784089 
C       -1.826914   -1.962188    1.484467 
C       -1.680420   -0.769421    2.371588 
C       -2.494197    0.384365    2.076645 
C       -2.736217   -1.979110    0.447667 
C       -3.409843    1.470721    0.200767 
C       -3.475452    0.968196   -1.105791 
C       -3.787271   -0.481908   -1.012768 
C       -3.532753    0.300339    1.159055 
C       -3.722284   -0.888713    0.334547 
