48
0 1
C        4.021806    0.478149   -0.648791 
C        4.019542   -0.871487   -0.087361 
C        3.416183   -0.816474    1.185094 
C        3.461492    1.371603    0.411973 
C        3.019235    0.583350    1.498899 
C        2.493941    2.233891   -0.241229 
C        3.089244    0.510112   -1.707826 
C        2.168396    1.645597   -1.545210 
C        3.105155   -1.688686   -0.947831 
C        2.498353   -0.828725   -1.904187 
C        2.394195   -1.866241    1.292473 
C        2.250830   -2.454102   -0.066941 
C        1.259187   -1.632657    2.020365 
C        1.737318    0.849477    2.128113 
C        0.898106   -0.271529    2.514144 
C        1.458902    2.731518    0.536579 
C        1.053735    2.021634    1.769934 
C        0.273735    3.097833   -0.154605 
C        0.837506    1.567597   -1.989743 
C       -0.074071    2.502916   -1.390151 
C        1.101154   -0.941040   -2.213683 
C        0.283753    0.265945   -2.438002 
C        0.985820   -2.761133   -0.519982 
C        0.448717   -2.087967   -1.704625 
C        0.004325   -2.295265    1.665041 
C       -0.130821   -2.894784    0.420899 
C       -0.503452   -0.183978    2.599674 
C       -1.094679   -1.489377    2.185313 
C       -0.416829    2.127753    1.864155 
C       -0.878041    2.919569    0.772702 
C       -1.230850    1.032871    2.286075 
C       -1.528169    2.272656   -1.368966 
C       -2.016244    2.570707    0.006064 
C       -1.103510    0.123113   -2.497453 
C       -2.035539    1.185501   -2.042503 
C       -0.999901   -2.172222   -1.629684 
C       -1.376934   -2.728709   -0.322459 
C       -1.766800   -1.157713   -2.191315 
C       -2.343829   -1.587461    1.632729 
C       -2.520406   -2.272893    0.325026 
C       -2.547030    0.939362    1.758756 
C       -2.961438    1.726511    0.603580 
C       -3.190322   -0.383306    1.596914 
C       -3.254196    0.572989   -1.540835 
C       -3.079822   -0.919532   -1.646725 
C       -3.484681   -1.501612   -0.439591 
C       -3.761427    0.878403   -0.279327 
C       -3.981641   -0.402163    0.444524 
