48
0 1
C       -3.426990   -0.760168   -0.312804 
C       -3.487670    0.568223   -0.033694 
C       -2.962471    1.327175   -1.246025 
C       -2.859283   -0.923111   -1.718734 
C       -2.363330    0.351606   -2.159165 
C       -2.033168   -2.032747   -1.692908 
C       -2.701644   -1.686690    0.564286 
C       -2.015010   -2.582133   -0.289236 
C       -2.052969   -1.196943    1.756934 
C       -2.822626    1.123807    1.152974 
C       -2.113549    0.255013    2.056557 
C       -2.237203    2.383560   -0.776997 
C       -2.225126    2.338695    0.732436 
C       -0.880294    2.618394   -1.224644 
C       -1.003739    0.493106   -2.562747 
C       -0.304727    1.752309   -2.206976 
C       -0.695215   -1.954325   -2.170753 
C       -0.205741   -0.728663   -2.694559 
C       -0.690374   -3.029218   -0.030355 
C        0.133605   -2.772153   -1.232286 
C       -0.900640   -1.933837    2.158676 
C       -0.162003   -2.788698    1.228420 
C        0.098788   -1.310337    2.997690 
C       -1.007296    0.861780    2.724180 
C        0.049182    0.034139    3.268168 
C       -0.929884    2.746819    1.149988 
C       -0.125620    3.046224   -0.057915 
C       -0.353100    2.060359    2.208797 
C        1.251288    2.860999   -0.031525 
C        1.118832    1.800125   -2.275005 
C        1.861795    2.409937   -1.225693 
C        1.242563   -0.618914   -2.758012 
C        1.871135    0.616640   -2.686997 
C        1.472149   -2.542543   -1.107054 
C        2.080546   -1.583407   -2.011040 
C        1.292518   -2.509647    1.369713 
C        1.467822   -1.628786    2.445123 
C        2.088215   -2.324258    0.221281 
C        1.377026    0.635261    2.892962 
C        1.117051    1.844270    2.235695 
C        1.905604    2.168307    1.109628 
C        2.201137   -0.395733    2.302135 
C        2.992670    1.487962   -0.832686 
C        3.071178    0.488398   -1.760636 
C        3.092415   -0.883071   -1.307571 
C        2.981062   -1.195928    0.124265 
C        2.871315    1.235482    0.610000 
C        2.921774   -0.127280    1.096113 
