48
0 1
C       -3.225859   -1.731462    0.088493 
C       -2.288788   -2.604567   -0.404098 
C       -1.781776   -2.048428   -1.724938 
C       -3.467462   -0.674807   -0.967205 
C       -2.425478   -0.753829   -1.935270 
C       -3.739376    0.533366   -0.287798 
C       -2.991178   -1.024613    1.353120 
C       -3.356491    0.343113    1.175983 
C       -1.793584   -1.292228    2.040867 
C       -1.117342   -2.975630    0.356641 
C       -0.903364   -2.381856    1.598844 
C       -0.423726   -2.218424   -1.788922 
C        0.005825   -3.007842   -0.585773 
C        0.443593   -1.153368   -2.288256 
C       -1.590564    0.386086   -2.243644 
C       -0.138919    0.207304   -2.406023 
C       -3.134437    1.686466   -0.748765 
C       -2.088050    1.640936   -1.763699 
C       -2.502147    1.412940    1.552332 
C       -2.555677    2.394529    0.459058 
C       -0.961650   -0.201329    2.509466 
C       -1.230465    1.153142    2.178066 
C        0.461636   -2.043474    1.999001 
C        0.420785   -0.709912    2.596253 
C        1.288718   -2.901120   -0.141374 
C        1.557591   -2.412883    1.226844 
C        1.807611   -1.351573   -2.076385 
C        2.267559   -2.280307   -1.020561 
C        2.719211   -0.230517   -2.012989 
C        0.752248    1.308379   -2.165388 
C        2.175169    1.111822   -1.949548 
C       -1.141467    2.653011   -1.387119 
C       -1.428915    3.042826    0.056021 
C        0.226966    2.487800   -1.522400 
C       -0.074762    2.017516    1.860330 
C       -0.181057    2.920362    0.772641 
C        0.861682    2.957030   -0.251597 
C        1.504426    0.123669    2.474493 
C        1.260696    1.543367    2.123114 
C        2.751369   -1.562352    1.159705 
C        3.254447   -1.625895   -0.231557 
C        3.645001   -0.422797   -0.919540 
C        2.735609   -0.331343    1.812448 
C        2.877976    1.805229   -0.934844 
C        2.141598    2.587918    0.055943 
C        2.351081    1.974392    1.348966 
C        3.719801    0.811439   -0.185726 
C        3.311937    0.837910    1.144789 
