48
0 1
C       -3.805594   -0.608029    0.460610 
C       -2.997848   -1.673818    1.116306 
C       -2.456509   -2.462701    0.121804 
C       -3.462468   -0.652072   -1.006427 
C       -2.712989   -1.791688   -1.229709 
C       -2.878221    0.625925   -1.375773 
C       -3.356042    0.615180    0.946725 
C       -2.980945    1.480570   -0.182417 
C       -2.061730   -1.010363    2.039514 
C       -2.323683    0.397550    1.980317 
C       -0.711454   -1.502137    2.174890 
C       -1.077868   -2.870403    0.143205 
C       -0.235031   -2.547366    1.239765 
C       -1.448390   -1.745567   -1.915419 
C       -0.573594   -2.694103   -1.219905 
C       -1.694822    0.685418   -2.175994 
C       -0.906708   -0.534165   -2.409755 
C       -0.995172    1.936133   -2.125491 
C       -2.057386    2.474642    0.039938 
C       -1.242941    2.850003   -1.070296 
C       -1.283962    1.363064    2.151574 
C       -1.200078    2.484718    1.264979 
C        0.223412   -0.587100    2.673958 
C       -0.064479    0.855693    2.687879 
C        1.676617   -0.743145    2.434124 
C        1.168985   -2.697474    1.001419 
C        2.159762   -1.782860    1.633119 
C        0.779281   -2.685010   -1.441758 
C        1.631973   -2.981514   -0.312284 
C        0.562966   -0.475028   -2.552393 
C        1.363826   -1.562968   -2.197659 
C        0.443276    1.978070   -2.381111 
C        1.206542    0.838606   -2.481347 
C        0.056281    3.352673   -0.530714 
C        0.068402    3.062873    0.901109 
C        1.065223    2.899689   -1.352344 
C        1.151846    1.550757    2.441646 
C        2.240377    0.552056    2.268135 
C        1.268340    2.542748    1.436683 
C        2.451345    1.033740   -1.659992 
C        2.234486    2.232913   -0.822029 
C        3.001496    0.913955    1.116411 
C        2.395867    2.142091    0.550463 
C        3.187956   -1.476662    0.680292 
C        2.888640   -2.257425   -0.544401 
C        2.711091   -1.370984   -1.616338 
C        3.445453   -0.122273    0.279393 
C        3.144471   -0.034214   -1.180702 
