48
0 1
C       -3.551920   -0.984140   -0.155501 
C       -2.792541   -2.097892   -0.439283 
C       -2.075264   -1.870151   -1.746886 
C       -3.349313    0.002112   -1.297532 
C       -2.273046   -0.526533   -2.148780 
C       -3.284761    1.260318   -0.781494 
C       -3.373094   -0.245098    1.087386 
C       -3.403215    1.165624    0.738606 
C       -2.370538   -0.678325    1.966720 
C       -1.811530   -2.608995    0.494282 
C       -1.635669   -1.917690    1.694344 
C       -0.783941   -2.451907   -1.646252 
C       -0.624170   -3.012558   -0.285066 
C        0.279940   -1.760757   -2.223102 
C       -1.137176    0.297649   -2.471172 
C        0.093681   -0.385454   -2.655901 
C       -2.149044    2.137225   -1.080054 
C       -1.091989    1.684710   -1.961515 
C       -2.489037    2.048666    1.270704 
C       -1.818512    2.774653    0.140062 
C       -1.394033    0.276103    2.520645 
C       -1.425808    1.615169    2.162320 
C       -0.279942   -1.760755    2.223102 
C       -0.093682   -0.385452    2.655901 
C        0.624165   -3.012560    0.285067 
C        0.783937   -2.451907    1.646253 
C        1.635667   -1.917693   -1.694344 
C        1.811527   -2.608998   -0.494281 
C        1.394035    0.276101   -2.520646 
C        2.370539   -0.678328   -1.966721 
C        0.172645    2.275857   -1.762536 
C        1.425811    1.615167   -2.162322 
C       -0.469004    3.001427    0.517578 
C       -0.172642    2.275857    1.762536 
C        0.469008    3.001424   -0.517582 
C        1.137175    0.297650    2.471172 
C        1.091987    1.684711    1.961516 
C        2.075263   -1.870152    1.746888 
C        2.792540   -2.097895    0.439285 
C        2.273045   -0.526533    2.148781 
C        3.373095   -0.245100   -1.087387 
C        3.551922   -0.984141    0.155503 
C        3.349314    0.002112    1.297532 
C        2.489039    2.048664   -1.270706 
C        1.818515    2.774651   -0.140063 
C        2.149045    2.137225    1.080052 
C        3.403216    1.165621   -0.738607 
C        3.284762    1.260316    0.781495 
