48
0 1
C       -4.156589    0.498900    0.815648 
C       -4.284923   -0.785223    0.079018 
C       -3.937487   -0.562301   -1.248138 
C       -3.618206    1.497146   -0.169312 
C       -3.452979    0.859777   -1.409746 
C       -2.432029    2.086025    0.418594 
C       -3.146595    0.329455    1.779594 
C       -2.160063    1.409007    1.680359 
C       -3.240915   -1.713327    0.659034 
C       -2.579106   -1.038375    1.700896 
C       -2.778665   -1.422253   -1.611201 
C       -2.403621   -2.180396   -0.452627 
C       -2.144831    0.808152   -2.030370 
C       -1.778036   -0.604579   -2.213903 
C       -1.308562    2.403154   -0.388672 
C       -1.104958    1.685747   -1.644022 
C       -0.147718    2.745538    0.352707 
C       -0.844906    1.225465    2.135290 
C        0.115333    2.145230    1.635579 
C       -1.168241   -1.224076    1.934820 
C       -0.361760   -0.133780    2.429140 
C       -1.035128   -2.417976   -0.222648 
C       -0.513114   -2.231630    1.130828 
C       -0.419332   -0.998971   -2.143947 
C       -0.109895   -2.123355   -1.294038 
C        0.259518    1.367912   -2.060725 
C        0.594408    0.014722   -2.384033 
C        1.093622    2.897718   -0.340803 
C        1.314970    2.225742   -1.553182 
C        1.567996    1.948628    1.768961 
C        2.205459    2.567658    0.614717 
C        1.040063   -0.321997    2.541413 
C        2.042157    0.726923    2.202192 
C        0.864507   -2.455752    1.333488 
C        1.603376   -1.563911    2.171146 
C        1.262882   -2.460808   -1.084029 
C        1.718422   -2.784909    0.209494 
C        1.971006   -0.442359   -2.330929 
C        2.280961   -1.684326   -1.765995 
C        2.704814    1.753083   -1.513012 
C        3.209164    1.926860   -0.081130 
C        3.027747    0.494158   -1.917593 
C        3.201852    0.082958    1.541312 
C        2.961426   -1.340090    1.573977 
C        3.057602   -2.137404    0.424062 
C        3.449073   -1.527211   -0.808145 
C        3.744043    0.648128    0.360304 
C        3.837259   -0.193076   -0.824371 
