48
0 1
C        3.642992    1.011433   -0.673952 
C        3.742556   -0.077082    0.339183 
C        3.426466   -1.269167   -0.300392 
C        3.040567    0.506355   -1.848922 
C        2.941414   -0.936906   -1.703648 
C        1.816326    1.272735   -2.138089 
C        2.787390    2.050409   -0.105643 
C        1.793986    2.361984   -1.116023 
C        2.965055    0.353899    1.506793 
C        2.368897    1.683365    1.199927 
C        2.185934   -0.574001    2.155954 
C        2.456954   -2.177972    0.273349 
C        2.012234   -1.932799    1.586136 
C        1.721026   -1.550725   -1.877943 
C        1.459496   -2.480755   -0.731729 
C        0.621180    0.649906   -2.484240 
C        0.586183   -0.841817   -2.472259 
C       -0.661432    1.362851   -2.252234 
C        0.603103    2.847533   -0.670297 
C       -0.643909    2.514368   -1.383071 
C        1.047280    2.037397    1.650704 
C        0.310033    2.877598    0.770295 
C        0.883554   -0.178897    2.748136 
C        0.296246    1.109788    2.504668 
C        0.706128   -2.375912    1.925901 
C        0.060009   -1.322224    2.757882 
C        0.144414   -2.851731   -0.409568 
C       -0.241085   -2.828931    0.974730 
C       -0.614720   -1.502141   -2.426783 
C       -0.884153   -2.549738   -1.375666 
C       -1.883405    0.678809   -2.335557 
C       -1.868061   -0.766006   -2.592991 
C       -2.977550    0.912256   -1.369379 
C       -1.708436    2.788285   -0.511664 
C       -1.114921    2.977100    0.873176 
C       -2.840459    1.911982   -0.397270 
C       -1.130926    1.153675    2.506221 
C       -1.818443    2.170972    1.744911 
C       -2.958497    1.530934    0.998684 
C       -1.331065   -1.293421    2.431452 
C       -1.569390   -2.297126    1.364447 
C       -1.947689   -0.057862    2.383411 
C       -3.023531    0.180908    1.388984 
C       -2.215416   -2.415133   -0.972764 
C       -2.859784   -1.386458   -1.821316 
C       -3.473233   -0.381965   -0.939309 
C       -2.541517   -2.087594    0.418117 
C       -3.311802   -0.808178    0.407648 
