48
0 1
C       -2.581476   -2.387465    1.106497 
C       -3.313932   -1.229544    0.585644 
C       -3.041407   -1.149771   -0.827328 
C       -1.832888   -2.989018   -0.023853 
C       -1.988305   -2.143021   -1.150158 
C       -0.510313   -3.267106    0.468164 
C       -1.638341   -1.943732    2.049949 
C       -0.325014   -2.505429    1.720275 
C       -2.980238   -0.104632    1.413989 
C       -1.796147   -0.494111    2.248546 
C       -3.041418    1.149747    0.827329 
C       -2.980242    0.104611   -1.413989 
C       -3.313941    1.229516   -0.585640 
C       -1.796151    0.494099   -2.248545 
C       -0.826862   -1.739155   -1.913321 
C       -0.682990   -0.318089   -2.340262 
C        0.510358   -3.267104   -0.468153 
C        0.325038   -2.505426   -1.720283 
C        1.832918   -2.988996    0.023855 
C        0.826885   -1.739141    1.913311 
C        1.988324   -2.142995    1.150159 
C       -0.682991    0.318082    2.340256 
C        0.682992   -0.318083    2.340255 
C       -1.988324    2.142997    1.150159 
C       -0.826881    1.739142    1.913312 
C       -2.581494    2.387437   -1.106491 
C       -1.638359    1.943714   -2.049947 
C       -1.832919    2.988995    0.023856 
C       -0.325040    2.505425   -1.720276 
C       -0.510353    3.267103   -0.468154 
C        0.682988    0.318089   -2.340261 
C        0.826864    1.739151   -1.913323 
C        1.638358   -1.943715   -2.049946 
C        2.581493   -2.387433   -1.106489 
C        1.796151   -0.494098   -2.248544 
C        3.041416   -1.149743    0.827327 
C        3.313940   -1.229514   -0.585638 
C        2.980236   -0.104612   -1.413985 
C        1.796149    0.494113    2.248539 
C        2.980237    0.104634    1.413987 
C        0.325014    2.505428    1.720277 
C        0.510316    3.267110    0.468161 
C        1.638342    1.943730    2.049945 
C        1.988305    2.143020   -1.150161 
C        3.041405    1.149770   -0.827327 
C        3.313931    1.229543    0.585642 
C        1.832887    2.989018   -0.023852 
C        2.581476    2.387461    1.106496 
