48
0 1
C        4.014447    0.470731   -0.444507 
C        3.358560    1.552931    0.322180 
C        2.982222    1.069561    1.564537 
C        3.853922   -0.792775    0.370023 
C        3.236139   -0.421773    1.621379 
C        3.201290   -1.732284   -0.421858 
C        3.293544    0.302552   -1.639835 
C        2.865268   -1.087191   -1.752505 
C        2.296712    2.115806   -0.523109 
C        2.228201    1.319254   -1.720949 
C        1.101620    2.625219    0.066858 
C        1.648562    1.298738    2.078443 
C        0.777267    2.248975    1.454101 
C        2.050957   -1.025127    2.059851 
C        1.120421    0.046703    2.523962 
C        1.990364   -2.393025    0.024029 
C        1.452565   -2.129680    1.330478 
C        1.560540   -1.404545   -2.069479 
C        1.066627   -2.405667   -1.083460 
C        0.959864    1.009378   -2.298378 
C        0.598698   -0.407054   -2.539417 
C        0.026257    2.784508   -0.839504 
C       -0.077144    1.910978   -2.000462 
C       -1.312893    2.998074   -0.338869 
C       -0.578619    2.165784    1.843197 
C       -1.604667    2.716282    0.980105 
C       -0.274285   -0.155300    2.655943 
C       -1.123278    0.951596    2.436188 
C        0.080372   -2.365152    1.501088 
C       -0.784835   -1.476668    2.336218 
C       -0.303540   -2.657347   -0.919074 
C       -0.751142   -2.859274    0.425640 
C       -0.727878   -0.780814   -2.553809 
C       -1.212921   -2.008042   -1.840428 
C       -1.501737    1.550302   -2.165679 
C       -2.276145    2.233321   -1.204363 
C       -1.824156    0.205101   -2.466072 
C       -2.800755    1.810227    1.024255 
C       -2.514413    0.771005    1.933969 
C       -3.205466    1.537357   -0.339296 
C       -2.105846   -1.655999    1.957757 
C       -2.129750   -2.578281    0.769876 
C       -2.994412   -0.533210    1.647678 
C       -2.552172   -1.802760   -1.492032 
C       -2.930500   -0.390432   -1.825717 
C       -3.565767    0.209259   -0.670044 
C       -3.015290   -2.065301   -0.161584 
C       -3.596809   -0.775944    0.382675 
