48
0 1
C       -3.998976    0.630681    0.372250 
C       -3.998974   -0.630682   -0.372245 
C       -3.273733   -1.615934    0.484174 
C       -3.189489    0.457620    1.518333 
C       -2.706814   -0.936550    1.591346 
C       -2.193117    1.534593    1.610885 
C       -3.273737    1.615932   -0.484174 
C       -2.369997    2.334103    0.393132 
C       -3.189489   -0.457619   -1.518336 
C       -2.706816    0.936553   -1.591346 
C       -2.369992   -2.334102   -0.393132 
C       -2.193114   -1.534591   -1.610891 
C       -1.257716   -2.900736    0.200988 
C       -1.350394   -1.204915    2.017100 
C       -0.763412   -2.369428    1.490576 
C       -0.906822    1.301801    2.128823 
C       -0.463451   -0.085543    2.418990 
C        0.097272    2.264593    1.758090 
C       -1.257714    2.900742   -0.200989 
C       -0.124515    3.100568    0.638694 
C       -1.350391    1.204918   -2.017099 
C       -0.763408    2.369430   -1.490577 
C       -0.906822   -1.301798   -2.128829 
C       -0.463451    0.085551   -2.418993 
C       -0.124523   -3.100564   -0.638695 
C        0.097269   -2.264589   -1.758094 
C        0.691654   -2.562697    1.482762 
C        1.095434   -3.078968    0.211337 
C        0.906287   -0.321797    2.523593 
C        1.513482   -1.599269    2.085162 
C        1.537344    1.952879    1.780982 
C        1.926145    0.724911    2.258608 
C        1.095444    3.078966   -0.211338 
C        0.691661    2.562694   -1.482760 
C        2.154850    2.500049    0.539541 
C        0.906291    0.321797   -2.523591 
C        1.513489    1.599265   -2.085158 
C        1.537341   -1.952877   -1.780982 
C        2.154844   -2.500053   -0.539540 
C        1.926148   -0.724912   -2.258606 
C        2.790798   -1.359316    1.511936 
C        3.098640    0.096684    1.665679 
C        3.112733   -1.742427    0.163261 
C        3.112738    1.742421   -0.163259 
C        2.790804    1.359310   -1.511932 
C        3.098643   -0.096689   -1.665675 
C        3.673778    0.570046    0.499123 
C        3.673778   -0.570054   -0.499121 
