48
0 1
C        3.254489   -1.615852    0.119672 
C        2.529612   -2.222722   -0.878587 
C        1.418894   -3.000941   -0.250070 
C        2.540970   -1.900956    1.436402 
C        1.370175   -2.622057    1.184521 
C        2.485725   -0.662147    2.137831 
C        3.545619   -0.188881    0.065210 
C        3.201002    0.377567    1.320825 
C        3.166207    0.525992   -1.115392 
C        1.928003   -1.459853   -1.977516 
C        2.255638   -0.126525   -2.110419 
C        0.302956   -2.887517   -1.042914 
C        0.532439   -1.860298   -2.108549 
C       -0.975026   -2.939956   -0.411672 
C        0.093923   -2.187856    1.732053 
C       -1.075144   -2.584476    1.044302 
C        1.264795   -0.135881    2.562983 
C        0.050392   -0.922068    2.466546 
C        2.455631    1.593963    1.434892 
C        1.255076    1.318659    2.229537 
C        2.756173    1.859550   -0.978429 
C        2.358918    2.425642    0.299279 
C        1.210794    0.826847   -2.487056 
C        1.620297    2.101891   -1.938885 
C       -0.485874   -0.953251   -2.437617 
C       -0.164146    0.475854   -2.532344 
C       -2.046937   -2.414065   -1.087689 
C       -1.849331   -1.333532   -2.083673 
C       -2.346274   -1.918660    1.215841 
C       -3.038031   -1.913192   -0.077522 
C       -1.160306   -0.211108    2.523294 
C       -2.399718   -0.744274    1.989587 
C        0.047209    1.978252    1.997880 
C       -1.175820    1.267983    2.314657 
C        1.126276    3.136862    0.102856 
C        0.702727    2.932546   -1.339126 
C       -0.006536    2.919128    0.898658 
C       -1.152404    1.460910   -2.060530 
C       -0.692010    2.606877   -1.355086 
C       -1.188645    2.879793   -0.000818 
C       -2.823135   -0.375957   -1.838038 
C       -3.619664   -0.772159   -0.598041 
C       -2.478231    1.029059   -1.696062 
C       -3.200968    0.375900    1.513944 
C       -2.377637    1.607535    1.701297 
C       -2.372981    2.327447    0.421539 
C       -3.733409    0.392953    0.222649 
C       -3.111715    1.532975   -0.530220 
