48
0 1
C        3.964948   -0.742337    0.675807 
C        4.024627   -0.180015   -0.589841 
C        3.467836    1.199041   -0.533362 
C        3.330884    0.246184    1.593462 
C        3.050088    1.469079    0.788223 
C        2.253209   -0.387473    2.203323 
C        3.044795   -1.922552    0.624366 
C        2.041224   -1.742066    1.593163 
C        3.157917   -0.950728   -1.532844 
C        2.641973   -2.088453   -0.775816 
C        2.511315    1.304053   -1.622369 
C        2.259644   -0.069273   -2.161731 
C        1.458185    2.154008   -1.469268 
C        1.817532    2.192212    1.008077 
C        1.192371    2.769473   -0.146835 
C        1.081122    0.348926    2.544985 
C        0.928023    1.737552    2.020020 
C       -0.170269   -0.253101    2.641577 
C        0.693491   -2.202398    1.372884 
C       -0.430421   -1.587876    2.088287 
C        1.332797   -2.445032   -1.011302 
C        0.425378   -2.741315    0.099293 
C        0.894938   -0.462375   -2.451797 
C        0.525827   -1.750338   -2.018985 
C        0.151453    1.878751   -2.101730 
C       -0.167181    0.548978   -2.557719 
C       -0.179838    3.105449   -0.127981 
C       -0.805408    2.636515   -1.408323 
C       -0.482224    2.003981    1.983901 
C       -1.193397    0.812280    2.471948 
C       -1.057435    2.723133    0.922297 
C       -2.467409    0.528377    2.080928 
C       -1.732511   -1.878397    1.699610 
C       -2.819899   -0.889104    1.878525 
C       -0.925540   -2.745237   -0.442046 
C       -0.865682   -2.094980   -1.759103 
C       -2.006870   -2.530986    0.395152 
C       -1.522468    0.162072   -2.458784 
C       -1.882307   -1.234694   -2.145192 
C       -2.119759    2.158453   -1.127525 
C       -2.339158    2.263634    0.333467 
C       -3.102378    1.303433    0.974770 
C       -2.535848    1.009064   -1.812688 
C       -3.738130   -0.983725    0.833612 
C       -3.205945   -1.940244   -0.175445 
C       -3.114460   -1.258103   -1.393029 
C       -3.857478    0.350376    0.171070 
C       -3.527561    0.175777   -1.175037 
