48
0 1
C       -4.148352    0.022458    0.237993 
C       -3.904639   -1.220317   -0.308775 
C       -3.151317   -1.039058   -1.586221 
C       -3.578901    1.062193   -0.665912 
C       -2.936938    0.391054   -1.789010 
C       -2.809310    1.930662    0.133870 
C       -3.403477    0.142269    1.537637 
C       -2.623893    1.314486    1.500318 
C       -3.001523   -1.994347    0.607913 
C       -2.756424   -1.140695    1.768965 
C       -2.034697   -1.892496   -1.525261 
C       -1.909775   -2.467311   -0.142869 
C       -0.849222   -1.481507   -2.150051 
C       -1.659668    0.851702   -2.241434 
C       -0.674115   -0.137194   -2.578194 
C       -1.704561    2.558229   -0.455447 
C       -1.128819    2.048928   -1.665619 
C       -0.614803    2.976632    0.412280 
C       -1.310849    1.341926    2.105695 
C       -0.342172    2.301747    1.602079 
C       -1.459318   -1.122619    2.270188 
C       -0.783068    0.133084    2.579454 
C       -0.594686   -2.563548    0.437127 
C       -0.447526   -2.016287    1.720122 
C        0.447526   -2.016281   -1.720128 
C        0.594688   -2.563547   -0.437135 
C        0.783067    0.133092   -2.579455 
C        1.459318   -1.122612   -2.270192 
C        0.342170    2.301752   -1.602072 
C        0.614800    2.976634   -0.412272 
C        1.310848    1.341933   -2.105692 
C        1.128817    2.048924    1.665624 
C        1.704559    2.558228    0.455454 
C        0.674115   -0.137201    2.578194 
C        0.849222   -1.481513    2.150048 
C        1.659667    0.851696    2.241436 
C        1.909776   -2.467311    0.142863 
C        2.034698   -1.892501    1.525257 
C        2.756425   -1.140690   -1.768968 
C        3.001525   -1.994343   -0.607918 
C        2.623892    1.314491   -1.500315 
C        2.809309    1.930663   -0.133866 
C        3.403478    0.142274   -1.537637 
C        2.936938    0.391050    1.789012 
C        3.151318   -1.039062    1.586219 
C        3.904640   -1.220317    0.308773 
C        3.578902    1.062192    0.665916 
C        4.148354    0.022460   -0.237993 
