48
0 1
C       -3.384021   -0.950389   -1.566383 
C       -3.417705   -1.581801   -0.205566 
C       -3.723137   -0.530995    0.729429 
C       -3.390823    0.527039   -1.362175 
C       -3.650451    0.795229   -0.036137 
C       -2.151656    1.044438   -1.960563 
C       -2.173898   -1.288617   -2.164924 
C       -1.427608   -0.071425   -2.505763 
C       -2.238384   -2.328031   -0.037598 
C       -1.457553   -2.264515   -1.329845 
C       -1.465009   -2.232550    1.184910 
C       -2.947256   -0.380100    1.865371 
C       -1.780480   -1.204433    2.127872 
C       -2.777720    1.691964    0.724308 
C       -2.484547    1.040924    1.950196 
C       -1.429444    2.110999   -1.337631 
C       -1.731815    2.432331    0.071573 
C       -0.102425    2.260956   -1.807084 
C       -0.010740   -0.106422   -2.549198 
C        0.614144    1.146846   -2.421803 
C       -0.092340   -2.331331   -1.373150 
C        0.711602   -1.334214   -2.143818 
C       -0.110740   -2.584091    1.117331 
C        0.546760   -2.899126   -0.184973 
C        0.898108   -1.978907    1.941129 
C       -0.713939   -0.362608    2.642877 
C       -1.173312    1.038361    2.511673 
C        0.656101   -0.681288    2.494857 
C       -0.638499    2.803045    0.902012 
C       -0.289233    1.997014    2.070729 
C        0.868082    2.994716   -1.020168 
C        0.616540    3.212652    0.320918 
C        2.037032    1.233434   -2.050880 
C        2.201059    2.325920   -1.160851 
C        2.083740   -1.271020   -1.946629 
C        2.757940    0.051219   -1.826610 
C        1.907090   -2.889007   -0.016427 
C        2.184409   -2.301286    1.359540 
C        2.750248   -2.148153   -0.947161 
C        3.613246    0.008137   -0.675399 
C        3.163914   -1.337854    1.230953 
C        3.643706   -1.371057   -0.191075 
C        1.661362    0.372426    2.240399 
C        1.165731    1.720940    2.049275 
C        1.738494    2.582281    1.106199 
C        2.727468    2.106518    0.163437 
C        2.870721    0.051530    1.576615 
C        3.345236    0.880302    0.440204 
