48
0 1
C       -3.694824   -0.984654   -0.983967 
C       -3.684182   -0.900108    0.504686 
C       -3.717227    0.431927    0.857327 
C       -3.382379    0.398547   -1.494263 
C       -3.494005    1.278943   -0.410960 
C       -2.149827    0.340337   -2.233970 
C       -2.648797   -1.815926   -1.364521 
C       -1.762202   -1.088255   -2.293093 
C       -2.560755   -1.744383    0.975947 
C       -2.001024   -2.384295   -0.164185 
C       -1.665562   -1.258489    2.019789 
C       -2.807767    0.951866    1.838996 
C       -1.759557    0.109316    2.437833 
C       -2.443713    2.200649   -0.133470 
C       -2.184573    2.112213    1.317522 
C       -1.122032    1.311995   -2.048860 
C       -1.317776    2.291185   -0.995937 
C        0.253925    0.940185   -2.438984 
C       -0.451751   -1.441397   -2.333478 
C        0.576374   -0.433798   -2.587691 
C       -0.617871   -2.756346   -0.236633 
C        0.122851   -2.440651   -1.406695 
C       -0.375934   -1.812480    2.062563 
C        0.102265   -2.737141    0.998777 
C        0.775393   -1.059261    2.521451 
C       -0.567238    0.908489    2.562043 
C       -0.833682    2.177373    1.844812 
C        0.747087    0.360832    2.553892 
C       -0.124464    2.874077   -0.409922 
C        0.135172    2.705529    1.060383 
C        1.352414    1.785730   -2.072638 
C        1.093463    2.790506   -1.039405 
C        2.646527    1.251412   -1.844150 
C        1.841822   -1.004124   -2.173608 
C        1.547525   -2.225059   -1.381159 
C        2.902501   -0.158921   -1.831598 
C        1.503647   -2.727140    0.989351 
C        1.961532   -1.735898    2.029028 
C        2.269654   -2.480137   -0.202376 
C        3.670879   -0.481542   -0.621751 
C        3.042131   -1.045390    1.556769 
C        3.352119   -1.563392    0.159363 
C        1.876400    1.122657    1.961691 
C        1.544020    2.312768    1.233511 
C        2.179174    2.633590    0.001874 
C        3.176005    1.811805   -0.536107 
C        3.038267    0.418300    1.503699 
C        3.655997    0.758554    0.248114 
