48
0 1
C       -1.969005    3.032841   -0.309389 
C       -0.540155    3.316276   -0.495479 
C        0.132097    3.018542    0.705151 
C       -2.129725    2.464880    1.052318 
C       -0.866769    2.436415    1.656715 
C       -2.926316    1.244471    0.912047 
C       -2.377317    2.080147   -1.246957 
C       -3.098516    1.004555   -0.551239 
C       -0.133878    2.634310   -1.720222 
C       -1.251179    1.753919   -2.153127 
C        1.149403    2.179955   -1.784694 
C        1.488903    2.545398    0.670025 
C        2.060957    2.333117   -0.628799 
C        1.907945    1.687884    1.733899 
C       -0.477901    1.309967    2.486170 
C        0.879412    0.994397    2.567973 
C       -2.644025    0.181648    1.729520 
C       -1.442063    0.232222    2.608594 
C       -2.769324   -1.204603    1.224032 
C       -2.992403   -0.255280   -1.054190 
C       -2.975147   -1.426280   -0.148319 
C       -1.027709    0.442920   -2.553874 
C       -2.046191   -0.547811   -2.180439 
C        1.443991    0.880987   -2.425447 
C        0.369119   -0.041087   -2.724592 
C        3.099563    1.371382   -0.813001 
C        2.670260    0.437624   -1.919759 
C        2.977003    0.777796    1.528800 
C        3.551804    0.589398    0.254287 
C        1.328849   -0.403821    2.707409 
C        2.547669   -0.568190    2.027061 
C       -0.992561   -1.086596    2.765499 
C       -1.780458   -1.994279    1.883725 
C        0.388309   -1.451205    2.629117 
C       -0.869273   -2.837333    1.190706 
C        0.516366   -2.482527    1.623006 
C       -2.235995   -2.456391   -0.792417 
C       -1.732304   -1.894255   -2.105290 
C       -1.142980   -3.124761   -0.159159 
C        0.671707   -1.403495   -2.552931 
C       -0.383357   -2.355503   -2.256669 
C       -0.017175   -3.101968   -1.094086 
C        2.845790   -0.921421   -1.435797 
C        3.366761   -0.873795   -0.114857 
C        2.688433   -1.532763    0.967070 
C        1.607716   -2.453100    0.699339 
C        1.814102   -1.826083   -1.717101 
C        1.315569   -2.708503   -0.684629 
