48
0 1
C       -3.302773   -2.026378   -0.183581 
C       -3.719386   -0.714170    0.369445 
C       -3.654622    0.222334   -0.663598 
C       -2.712688   -1.761969   -1.547862 
C       -2.940091   -0.420256   -1.838877 
C       -1.359183   -2.251971   -1.560118 
C       -2.294970   -2.548975    0.615090 
C       -1.183329   -2.952710   -0.259662 
C       -2.917080   -0.486632    1.573460 
C       -1.976344   -1.614971    1.732780 
C       -2.440401    0.781473    1.822514 
C       -3.066533    1.512255   -0.455047 
C       -2.695236    1.865404    0.857174 
C       -1.855949    0.440479   -2.211578 
C       -2.087478    1.735218   -1.538491 
C       -0.279963   -1.467202   -2.041524 
C       -0.538425   -0.066758   -2.370047 
C        1.082691   -1.887752   -1.654884 
C        0.042345   -3.017428    0.288332 
C        1.223917   -2.766840   -0.541258 
C       -0.653802   -1.426596    2.120893 
C        0.311362   -2.401295    1.625835 
C       -1.069176    0.979233    2.362424 
C       -0.105988   -0.083981    2.419498 
C       -1.643360    2.828899    1.019673 
C       -0.653031    2.277276    2.023270 
C       -1.033361    2.603836   -1.354701 
C       -0.912880    3.275608   -0.068025 
C        0.560564    0.900881   -2.283064 
C        0.308091    2.195624   -1.786157 
C        2.189175   -1.029793   -1.915491 
C        1.914606    0.409908   -2.185850 
C        3.389614   -1.102101   -1.129001 
C        2.301737   -2.616345    0.389725 
C        1.658465   -2.170312    1.694877 
C        3.371066   -1.784470    0.124124 
C        1.288085    0.235787    2.236402 
C        2.232262   -0.856223    2.001358 
C        3.391113   -0.710908    1.224486 
C        0.674407    2.539257    1.559731 
C        0.538189    3.242168    0.300175 
C        1.262201    2.796416   -0.818601 
C        1.684961    1.543495    1.705569 
C        2.921663    1.176625   -1.548035 
C        3.833038    0.283526   -0.849471 
C        3.678851    0.521380    0.553847 
C        2.477356    2.161721   -0.569592 
C        2.760289    1.637232    0.753834 
