48
0 1
C        3.861948    0.137115   -0.850714 
C        3.720558   -0.891705    0.221606 
C        3.040706   -1.976831   -0.325754 
C        2.976971   -0.294055   -1.989777 
C        2.554300   -1.597182   -1.718974 
C        1.988069    0.721372   -2.200634 
C        3.412053    1.357438   -0.376580 
C        2.359680    1.856058   -1.296029 
C        3.172969   -0.214782    1.393502 
C        3.063706    1.226407    1.067107 
C        2.119761   -0.813334    2.083409 
C        1.924816   -2.571917    0.353316 
C        1.538758   -2.065278    1.599886 
C        1.179071   -1.943286   -1.820627 
C        0.867283   -2.795783   -0.652193 
C        0.623408    0.386939   -2.386132 
C        0.203824   -1.002093   -2.259278 
C       -0.381408    1.435327   -2.125301 
C        1.398074    2.675208   -0.802872 
C        0.012734    2.549748   -1.283591 
C        2.016471    1.966759    1.548879 
C        1.331212    2.914309    0.657617 
C        0.999373   -0.008918    2.606372 
C        0.950887    1.349507    2.368031 
C        0.121558   -2.072969    1.961975 
C       -0.239052   -0.782709    2.545087 
C       -0.427157   -2.946499   -0.270593 
C       -0.797028   -2.721727    1.143383 
C       -1.207058   -1.335880   -2.016186 
C       -1.508390   -2.394334   -1.105570 
C       -1.729279    1.100127   -2.146121 
C       -2.187997   -0.305989   -2.161743 
C       -2.692866    1.830225   -1.290046 
C       -0.829164    2.947048   -0.206677 
C       -0.026223    2.973504    1.010486 
C       -0.338069    1.970272    2.044456 
C       -2.135188    2.467641   -0.094442 
C       -1.505428   -0.185955    2.310379 
C       -1.543293    1.254624    2.002845 
C       -2.556063    1.726695    1.054599 
C       -2.144229   -2.269306    1.159233 
C       -2.661200   -2.307226   -0.255288 
C       -2.527018   -1.040244    1.748950 
C       -3.441428   -0.364504   -1.456415 
C       -3.729023    0.984215   -0.896490 
C       -3.640442    0.852765    0.598757 
C       -3.598939   -1.294514   -0.400627 
C       -3.592248   -0.486278    0.908778 
