48
0 1
C        2.416998    2.241116   -1.568079 
C        2.235389    2.667602   -0.154046 
C        2.707349    1.642710    0.691825 
C        2.980009    0.878548   -1.531990 
C        3.313129    0.575938   -0.186819 
C        2.075953    0.005326   -2.246218 
C        1.150742    2.177463   -2.158054 
C        0.910143    0.810513   -2.638842 
C        0.871717    3.128244   -0.040869 
C        0.149702    2.794244   -1.278076 
C        0.218931    2.916638    1.179127 
C        1.918922    1.229104    1.834885 
C        0.711395    1.880771    2.088756 
C        2.006810   -0.156762    2.252232 
C        3.263513   -0.758344    0.220819 
C        2.874116   -1.045940    1.615033 
C        1.920776   -1.338664   -1.802150 
C        2.639466   -1.745416   -0.629364 
C        0.646285   -1.927426   -2.070942 
C       -0.385484    0.294270   -2.615660 
C       -0.436761   -1.148453   -2.585376 
C       -1.169291    2.313354   -1.262098 
C       -1.510452    1.086460   -2.037682 
C       -1.198321    2.867084    1.143805 
C       -1.911355    2.605242   -0.053812 
C       -0.492316    1.143738    2.590604 
C       -1.638591    1.869414    2.181101 
C        0.756387   -0.909486    2.629260 
C       -0.535336   -0.276436    2.587596 
C        2.246273   -2.377404    1.605765 
C        2.047308   -2.752416    0.271183 
C        0.900893   -2.235117    2.227061 
C        0.063578   -2.942197   -1.137970 
C        0.649023   -3.159520    0.096643 
C       -0.088371   -2.799303    1.312689 
C       -1.683668   -1.786068   -2.209632 
C       -1.347351   -2.805166   -1.158037 
C       -2.695797    0.408583   -1.716393 
C       -2.757583   -1.049215   -1.794006 
C       -3.046805    1.770271    0.314286 
C       -2.763438    1.202741    1.702921 
C       -3.432168    0.744200   -0.492256 
C       -1.662070   -0.994616    2.000380 
C       -1.386941   -2.243823    1.247802 
C       -2.089153   -2.490650    0.011591 
C       -3.145185   -1.573149   -0.418304 
C       -2.803646   -0.220871    1.622938 
C       -3.494722   -0.517132    0.358372 
