48
0 1
C       -3.577909   -1.459993    0.248449 
C       -2.585029   -2.526454   -0.057365 
C       -2.134889   -2.328565   -1.352757 
C       -3.530768   -0.480200   -0.888562 
C       -2.706193   -1.017199   -1.867289 
C       -3.196382    0.831096   -0.349591 
C       -3.124474   -0.784156    1.381957 
C       -3.061484    0.654629    1.101349 
C       -1.577426   -2.510855    1.010392 
C       -1.904646   -1.429783    1.907219 
C       -0.213984   -2.798057    0.705150 
C       -0.728671   -2.335055   -1.661832 
C        0.214024   -2.798053   -0.705151 
C       -1.608387   -0.264000   -2.411372 
C       -0.435559   -1.143645   -2.443467 
C       -2.290989    1.692478   -1.039559 
C       -1.461390    1.113168   -2.112827 
C       -1.727175    2.749782   -0.238487 
C       -2.153627    1.422819    1.804875 
C       -1.686883    2.604906    1.171661 
C       -0.879805   -0.633875    2.495253 
C       -0.999310    0.798852    2.514020 
C        0.728701   -2.335057    1.661831 
C        0.435574   -1.143640    2.443467 
C        2.134914   -2.328546    1.352760 
C        1.577456   -2.510844   -1.010393 
C        2.585055   -2.526431    0.057362 
C        0.879817   -0.633868   -2.495259 
C        1.904662   -1.429761   -1.907226 
C       -0.140148    1.636704   -2.357865 
C        0.999300    0.798866   -2.514023 
C       -0.452162    3.362094   -0.616420 
C        0.280277    2.845109   -1.645663 
C       -0.280309    2.845102    1.645665 
C        0.140130    1.636705    2.357865 
C        0.452125    3.362098    0.616419 
C        1.608387   -0.263987    2.411369 
C        2.706206   -1.017174    1.867287 
C        1.461375    1.113184    2.112833 
C        3.577924   -1.459959   -0.248446 
C        3.124485   -0.784124   -1.381960 
C        3.530770   -0.480169    0.888568 
C        2.153610    1.422844   -1.804874 
C        1.686853    2.604924   -1.171659 
C        1.727142    2.749801    0.238491 
C        2.290968    1.692505    1.039561 
C        3.061475    0.654659   -1.101346 
C        3.196369    0.831126    0.349592 
