48
0 1
C        3.688794   -1.102431    1.202853 
C        3.727787   -1.565478   -0.205355 
C        3.643193   -0.339901   -1.065826 
C        3.513386    0.290448    1.189262 
C        3.566062    0.796599   -0.206425 
C        2.328319    0.650223    1.995861 
C        2.446399   -1.674428    1.794805 
C        1.696133   -0.564537    2.395664 
C        2.568010   -2.309889   -0.449856 
C        1.776984   -2.403152    0.804192 
C        2.584730   -0.560127   -2.032812 
C        1.860241   -1.779020   -1.636147 
C        1.836293    0.538903   -2.460752 
C        2.705609    1.857941   -0.552389 
C        2.051991    1.801723   -1.803580 
C        1.529928    1.796639    1.677485 
C        1.738768    2.450614    0.426325 
C        0.202310    1.786882    2.207240 
C        0.274717   -0.667555    2.504653 
C       -0.420189    0.534029    2.668213 
C        0.344653   -2.397295    0.726661 
C       -0.394076   -1.766676    1.785805 
C        0.479779   -1.845133   -1.700353 
C       -0.260867   -2.489630   -0.585359 
C        0.400373    0.406569   -2.686507 
C       -0.246474   -0.791843   -2.416409 
C        0.733932    2.477288   -1.690498 
C        0.605849    2.947588   -0.321241 
C       -0.258728    1.685782   -2.261167 
C       -0.823312    2.541166    1.572938 
C       -0.687789    2.947918    0.220586 
C       -1.868685    0.612036    2.397635 
C       -2.118742    1.827649    1.714858 
C       -1.807693   -1.759930    1.674456 
C       -2.591368   -0.528526    2.002554 
C       -1.651747   -2.565271   -0.653190 
C       -2.417343   -2.385167    0.558356 
C       -1.687560   -0.768045   -2.312897 
C       -2.367329   -1.822388   -1.720500 
C       -1.598380    1.684949   -1.725099 
C       -1.838010    2.392193   -0.534741 
C       -2.800040    1.843411    0.451052 
C       -2.404065    0.517703   -1.996382 
C       -3.633120   -0.377142    1.047583 
C       -3.653053   -1.617139    0.217012 
C       -3.620895   -1.278151   -1.122632 
C       -3.621425    0.757023    0.134895 
C       -3.533353    0.213578   -1.230826 
