48
0 1
C        4.117932   -0.788775   -0.000035 
C        3.487976   -2.001800   -0.000019 
C        2.579248   -2.079022    1.195828 
C        3.648576   -0.009731    1.209097 
C        2.578651   -0.777686    1.864884 
C        3.361253    1.264988    0.765994 
C        3.648458   -0.009818   -1.209180 
C        3.361192    1.264968   -0.766141 
C        2.579211   -2.079128   -1.195786 
C        2.578575   -0.777786   -1.864909 
C        1.362792   -2.575573    0.755212 
C        1.362834   -2.575638   -0.755174 
C        0.156584   -2.170424    1.394214 
C        1.336984   -0.163344    2.196955 
C        0.095957   -0.955403    2.121997 
C        2.170238    1.941548    1.178161 
C        1.209720    1.281181    1.991837 
C        2.170204    1.941471   -1.178285 
C        1.687786    2.682988   -0.000040 
C        1.336908   -0.163413   -2.196920 
C        1.209633    1.281046   -1.991843 
C        0.156531   -2.170464   -1.394145 
C        0.095803   -0.955485   -2.121949 
C       -1.013202   -2.702905    0.754865 
C       -1.013173   -2.702939   -0.754782 
C       -2.277900   -2.378803    1.198866 
C       -1.244861   -0.344442    2.256085 
C       -2.424273   -1.074296    1.871739 
C       -0.097267    1.877059    2.001047 
C       -1.324998    1.065208    2.163988 
C        0.433325    3.226616   -0.000035 
C       -0.395520    2.972320    1.167923 
C       -0.097339    1.877013   -2.001044 
C       -0.395554    2.972321   -1.167991 
C       -1.244962   -0.344498   -2.256088 
C       -1.325103    1.065188   -2.163976 
C       -2.277928   -2.378794   -1.198844 
C       -3.187513   -2.389650    0.000032 
C       -2.424329   -1.074304   -1.871713 
C       -3.506343   -0.401384    1.197291 
C       -3.899205   -1.218617    0.000034 
C       -3.506449   -0.401354   -1.197236 
C       -2.386556    1.712629    1.415415 
C       -1.802950    2.829688    0.695315 
C       -1.802976    2.829712   -0.695318 
C       -2.386576    1.712615   -1.415400 
C       -3.345672    0.933471    0.754633 
C       -3.345718    0.933446   -0.754563 
