48
0 1
C       -3.434896    0.407996    1.216258 
C       -2.669957    1.465158    1.659743 
C       -2.362986    2.351108    0.483349 
C       -3.643124    0.595784   -0.282128 
C       -2.786042    1.724525   -0.701793 
C       -3.556239   -0.625898   -0.882979 
C       -2.997343   -0.965639    1.421915 
C       -3.155199   -1.663802    0.157959 
C       -1.813841   -1.167767    2.132696 
C       -1.417462    1.270840    2.368236 
C       -1.037334   -0.031264    2.653130 
C       -1.029892    2.839092    0.661943 
C       -0.410482    2.192426    1.821382 
C       -0.273046    3.030508   -0.496847 
C       -1.827052    1.536740   -1.787042 
C       -0.611809    2.251750   -1.711696 
C       -2.664334   -0.819834   -2.007667 
C       -1.740770    0.252320   -2.422353 
C       -2.125280   -2.445994   -0.382795 
C       -1.913651   -1.990751   -1.775936 
C       -0.847158   -2.167371    1.679276 
C       -0.957415   -2.763779    0.401234 
C        0.382219   -0.380270    2.636956 
C        0.462624   -1.768157    2.199456 
C        0.973657    1.890991    1.838580 
C        1.395846    0.559066    2.326392 
C        1.128391    3.056834   -0.335805 
C        1.766133    2.540206    0.822863 
C        0.638623    1.715365   -2.232739 
C        1.729253    2.388437   -1.544189 
C       -0.463846   -0.352676   -2.682077 
C       -0.565866   -1.776064   -2.280291 
C        0.778591    0.336154   -2.538855 
C        0.279763   -3.006947   -0.310246 
C        0.477588   -2.376894   -1.660653 
C        1.633152   -2.254922    1.625531 
C        1.502301   -2.932750    0.341232 
C        2.653910    0.001363    1.882289 
C        2.763904   -1.373266    1.572140 
C        2.999351    1.908142    0.350106 
C        2.861313    1.729777   -1.161786 
C        3.434033    0.730117    0.868689 
C        1.990717   -0.401108   -2.103980 
C        1.820998   -1.769423   -1.695233 
C        2.518280   -2.309701   -0.581330 
C        3.379841   -1.506995    0.189872 
C        3.049504    0.311666   -1.453213 
C        3.685032   -0.235094   -0.279594 
