48
0 1
C       -4.123414   -0.444937    1.064980 
C       -4.450587   -0.297924   -0.285279 
C       -3.855872   -1.415568   -1.037262 
C       -3.215119   -1.631677    1.237571 
C       -3.077653   -2.244134   -0.043499 
C       -2.052068   -1.173643    1.925660 
C       -3.358167    0.733578    1.547407 
C       -2.157190    0.301670    2.134451 
C       -3.780485    0.952112   -0.775408 
C       -3.281952    1.668922    0.409885 
C       -2.899957   -0.873181   -1.918820 
C       -2.838728    0.594503   -1.771272 
C       -1.761623   -2.406462   -0.552878 
C       -1.622457   -1.577071   -1.790117 
C       -0.777177   -1.649928    1.565425 
C       -0.651097   -2.341654    0.318871 
C        0.420486   -0.960827    2.061263 
C       -0.947989    1.106288    2.088718 
C        0.353537    0.509742    2.224674 
C       -2.121428    2.365592    0.273485 
C       -1.064971    2.301095    1.315033 
C       -1.548995    1.243357   -1.878068 
C       -1.386772    2.377014   -1.017492 
C       -0.420526   -0.960828   -2.061168 
C       -0.353615    0.509768   -2.224634 
C        0.651239   -2.341772   -0.318788 
C        0.777314   -1.649881   -1.565560 
C        1.622500   -1.577127    1.790148 
C        1.761576   -2.406408    0.552959 
C        2.900030   -0.873184    1.918916 
C        1.548935    1.243387    1.878122 
C        2.838690    0.594556    1.771340 
C        0.098502    2.862645    0.750509 
C       -0.098690    2.862657   -0.750452 
C        1.386614    2.377032    1.017535 
C        0.947917    1.106338   -2.088745 
C        1.064835    2.301111   -1.315016 
C        2.121294    2.365661   -0.273434 
C        2.051950   -1.173636   -1.925900 
C        2.157164    0.301745   -2.134619 
C        3.077824   -2.244052    0.043375 
C        3.856066   -1.415547    1.037292 
C        3.215211   -1.631605   -1.237542 
C        3.780511    0.952181    0.775442 
C        3.281905    1.669005   -0.409864 
C        3.358135    0.733663   -1.547461 
C        4.450787   -0.297785    0.285280 
C        4.123506   -0.444791   -1.065064 
