48
0 1
C       -3.602223   -0.777104    0.223641 
C       -2.910946   -1.755586    0.908607 
C       -2.128247   -2.573011   -0.081078 
C       -3.232810   -0.919504   -1.249359 
C       -2.180546   -1.930383   -1.341395 
C       -3.033120    0.320415   -1.773584 
C       -3.461073    0.626772    0.570571 
C       -3.323133    1.350198   -0.688945 
C       -2.590544    0.961331    1.620343 
C       -2.005287   -1.434570    1.995785 
C       -1.877417   -0.094478    2.359764 
C       -0.895270   -2.945197    0.532699 
C       -0.795292   -2.258061    1.837549 
C        0.221259   -3.022205   -0.282367 
C       -0.948851   -1.624652   -2.030195 
C        0.156026   -2.417659   -1.624466 
C       -1.751737    0.690396   -2.398691 
C       -0.677226   -0.262803   -2.509631 
C       -2.397221    2.356054   -0.829823 
C       -1.468617    2.000873   -1.969048 
C       -1.663720    2.092695    1.484727 
C       -1.555825    2.774279    0.270216 
C       -0.557629    0.413115    2.737998 
C       -0.440117    1.784122    2.236662 
C        0.440117   -1.784150    2.236645 
C        0.557630   -0.413146    2.737994 
C        1.555823   -2.774286    0.270183 
C        1.663721   -2.092716    1.484703 
C        1.468615   -2.000844   -1.969074 
C        2.397216   -2.356050   -0.829854 
C        0.677213    0.262854   -2.509622 
C        1.751732   -0.690365   -2.398696 
C       -0.156031    2.417686   -1.624444 
C       -0.221261    3.022216   -0.282326 
C        0.948843    1.624680   -2.030180 
C        0.795294    2.258037    1.837573 
C        0.895268    2.945192    0.532735 
C        1.877421    0.094449    2.359766 
C        2.590548   -0.961354    1.620333 
C        2.005291    1.434544    1.995799 
C        3.323131   -1.350195   -0.688963 
C        3.033119   -0.320394   -1.773592 
C        3.461078   -0.626785    0.570560 
C        2.180547    1.930406   -1.341374 
C        2.128255    2.573012   -0.081055 
C        2.910953    1.755569    0.908621 
C        3.232811    0.919511   -1.249356 
C        3.602231    0.777092    0.223644 
