48
0 1
C        3.653354    0.421029   -0.049744 
C        3.562006   -0.810418    0.557487 
C        2.980858   -1.800486   -0.444374 
C        3.191256    0.250640   -1.484639 
C        2.597236   -1.076962   -1.602024 
C        2.459835    1.350000   -1.828021 
C        2.945513    1.583514    0.486756 
C        2.432258    2.292803   -0.649674 
C        2.085818    1.426242    1.631799 
C        2.791551   -0.950366    1.758330 
C        1.997528    0.105494    2.228522 
C        2.047255   -2.637272    0.255066 
C        1.920633   -2.161101    1.606677 
C        0.872297   -2.985781   -0.412795 
C        1.258024   -1.203912   -2.137856 
C        0.559702   -2.340052   -1.695900 
C        1.100020    1.258812   -2.339783 
C        0.469372    0.012500   -2.500716 
C        1.190432    2.941569   -0.646497 
C        0.382845    2.411405   -1.784651 
C        0.914786    2.222453    1.682215 
C        0.551096    3.106559    0.602710 
C       -0.366487    1.716757    2.274018 
C        0.664960   -0.464549    2.582797 
C        0.645402   -1.866143    2.136880 
C       -0.495476    0.297112    2.586127 
C       -0.376859   -3.133835    0.322812 
C       -0.537399   -2.437975    1.561965 
C       -0.872782   -2.424719   -1.837732 
C       -1.427644   -3.056419   -0.684425 
C       -1.003009   -0.005121   -2.439596 
C       -1.685237   -1.261972   -2.199018 
C       -0.989694    2.384425   -1.704837 
C       -1.707395    1.157388   -2.052742 
C       -0.888755    3.262921    0.602315 
C       -1.428702    2.420477    1.724722 
C       -1.626728    2.977454   -0.530810 
C       -2.894690    1.081183   -1.164040 
C       -2.626535    1.743106    1.221815 
C       -2.768410    2.088706   -0.156604 
C       -1.736849   -0.363440    2.262442 
C       -1.760781   -1.711859    1.801907 
C       -2.830833    0.397949    1.585211 
C       -2.682833   -2.420553   -0.392184 
C       -2.870451   -1.334421   -1.444827 
C       -3.395256   -0.165690   -0.770956 
C       -2.865622   -1.837860    0.838464 
C       -3.435610   -0.459591    0.643411 
