48
0 1
C       -3.985131    1.041064    0.088839 
C       -3.994577    0.050017   -0.995181 
C       -3.604075   -1.246613   -0.386211 
C       -3.471597    0.419473    1.256057 
C       -3.335289   -1.023967    1.004964 
C       -2.291225    1.149922    1.774079 
C       -3.002456    2.073490   -0.298409 
C       -2.159309    2.305977    0.874714 
C       -2.949269    0.390033   -1.891369 
C       -2.351216    1.665504   -1.492463 
C       -2.551819   -1.816769   -1.210662 
C       -2.025950   -0.739086   -2.076466 
C       -1.653149   -2.672930   -0.594206 
C       -2.240614   -1.678567    1.591923 
C       -1.640962   -2.714975    0.855815 
C       -1.123652    0.516783    2.246441 
C       -1.123585   -0.932108    2.284790 
C        0.196673    1.167048    2.145629 
C       -0.917425    2.797129    0.641063 
C        0.199708    2.427810    1.505275 
C       -0.936607    1.866919   -1.664223 
C       -0.385685    2.816639   -0.751908 
C       -0.648052   -0.543168   -2.229926 
C       -0.062143    0.823826   -2.161298 
C       -0.267299   -2.684756   -1.045952 
C        0.219427   -1.674125   -1.893184 
C       -0.221168   -2.805700    1.274342 
C        0.072400   -1.651827    2.145644 
C        0.553080   -3.029667    0.150270 
C        1.465143    0.398425    2.156716 
C        1.390825   -1.050749    2.051354 
C        2.665010    1.014213    1.670408 
C        1.371236    2.912037    0.815129 
C        0.998288    2.971804   -0.660032 
C        2.561882    2.268134    0.928241 
C        1.368305    0.995988   -2.061583 
C        1.898699    2.140237   -1.370586 
C        3.073420    1.994494   -0.477026 
C        1.647257   -1.469663   -1.928573 
C        2.222386   -0.186966   -2.076408 
C        1.909136   -2.648221    0.193130 
C        2.374881   -1.768196    1.310517 
C        2.512674   -2.249543   -1.004489 
C        3.675399    0.255274    0.974958 
C        3.825702    0.868368   -0.430978 
C        3.529768   -0.201108   -1.366563 
C        3.552884   -1.118117    0.804017 
C        3.658074   -1.423785   -0.676617 
