48
0 1
C        1.786135   -2.979385    0.461889 
C        2.303987   -2.485933   -0.731740 
C        3.175485   -1.314140   -0.425410 
C        2.158731   -2.008652    1.551367 
C        3.064459   -1.037773    0.982311 
C        0.981472   -1.617504    2.203454 
C        0.385902   -3.272261    0.586761 
C       -0.108575   -2.523413    1.758473 
C       -0.385896   -3.272262   -0.586760 
C        1.414837   -2.096611   -1.810329 
C        0.108580   -2.523414   -1.758473 
C        2.909812   -0.301068   -1.387605 
C        1.727067   -0.696308   -2.183104 
C        3.064457    1.037779   -0.982309 
C        2.909809    0.301072    1.387606 
C        3.175481    1.314145    0.425408 
C        0.706305   -0.220979    2.482753 
C        1.727066    0.696310    2.183102 
C       -0.706305    0.220979    2.482754 
C       -1.414832   -2.096613    1.810328 
C       -1.727065   -0.696310    2.183102 
C       -1.786130   -2.979389   -0.461887 
C       -2.303982   -2.485937    0.731741 
C       -0.981469   -1.617508   -2.203454 
C       -2.158728   -2.008658   -1.551367 
C        0.706305    0.220979   -2.482754 
C       -0.706305   -0.220980   -2.482754 
C        2.158727    2.008657   -1.551368 
C        0.981469    1.617507   -2.203454 
C        2.303983    2.485937    0.731740 
C        1.414833    2.096613    1.810328 
C        1.786129    2.979389   -0.461888 
C       -0.981472    1.617506    2.203454 
C        0.108576    2.523415    1.758473 
C       -2.158731    2.008654    1.551367 
C       -2.909810   -0.301073    1.387605 
C       -3.175482   -1.314146    0.425410 
C       -3.064457   -1.037779   -0.982310 
C       -3.064459    1.037773    0.982310 
C       -1.727067    0.696307   -2.183102 
C       -2.909811    0.301067   -1.387605 
C       -3.175484    1.314140   -0.425410 
C       -0.108581    2.523413   -1.758473 
C        0.385896    3.272262   -0.586761 
C       -0.385902    3.272262    0.586760 
C       -1.786135    2.979386    0.461888 
C       -1.414836    2.096610   -1.810328 
C       -2.303987    2.485933   -0.731741 
