48
0 1
C        2.328287   -2.541933    0.154011 
C        2.226588   -2.056042    1.425746 
C        0.886446   -2.460929    1.992017 
C        1.037235   -3.287323   -0.154012 
C        0.113076   -3.063660    0.958142 
C        0.667291   -2.956304   -1.425747 
C        2.596668   -1.629758   -0.958140 
C        1.688003   -1.998147   -1.992016 
C        2.866601   -0.244781   -0.701377 
C        2.438893   -0.650282    1.731998 
C        2.866601    0.244776    0.701379 
C        0.413420   -1.372710    2.760756 
C        1.412932   -0.279738    2.689201 
C       -0.948726   -1.083766    2.689201 
C       -1.221318   -2.604938    0.701379 
C       -1.782607   -1.787002    1.731998 
C       -0.656287   -2.437282   -1.731999 
C       -1.645287   -2.360159   -0.701377 
C        0.982091   -1.044385   -2.760756 
C       -0.464206   -1.363503   -2.689202 
C        2.438892    0.650280   -1.731999 
C        1.412931    0.279737   -2.689202 
C        2.226589    2.056043   -1.425747 
C        2.596670    1.629757    0.958142 
C        2.328288    2.541934   -0.154012 
C        0.982091    1.044387    2.760756 
C        1.688004    1.998149    1.992017 
C       -1.395511    0.328323    2.760756 
C       -0.464206    1.363504    2.689201 
C       -2.893878   -0.900261    1.425746 
C       -2.574450    0.462780    1.992017 
C       -2.709746   -1.433902   -0.958140 
C       -3.365522   -0.745389    0.154011 
C       -1.395510   -0.328323   -2.760756 
C       -2.574447   -0.462780   -1.992016 
C        0.413419    1.372709   -2.760756 
C        0.886444    2.460927   -1.992016 
C       -0.948725    1.083765   -2.689202 
C        1.037235    3.287322    0.154011 
C        0.667290    2.956302    1.425746 
C       -0.656285    2.437284    1.731998 
C        0.113078    3.063660   -0.958140 
C       -2.709746    1.433903    0.958142 
C       -3.365523    0.745389   -0.154012 
C       -2.893880    0.900261   -1.425747 
C       -1.782604    1.787002   -1.731999 
C       -1.645283    2.360161    0.701379 
C       -1.221314    2.604940   -0.701377 
