48
0 1
C       -3.801631    0.779968   -0.466155 
C       -3.524527   -0.505395   -1.156427 
C       -3.357579   -1.486077   -0.174131 
C       -3.533342    0.623341    0.913127 
C       -3.304088   -0.784454    1.179130 
C       -2.495086    1.582832    1.318790 
C       -2.863449    1.771510   -1.008806 
C       -2.238915    2.409292    0.132152 
C       -2.448507   -0.259537   -2.106651 
C       -2.034155    1.170383   -1.985446 
C       -1.453500   -1.209172   -2.235059 
C       -2.245538   -2.388937   -0.223803 
C       -1.386920   -2.355281   -1.326114 
C       -2.170611   -1.207609    1.846760 
C       -1.621475   -2.393845    1.109058 
C       -1.408887    1.177862    2.134534 
C       -1.219790   -0.257247    2.447660 
C       -0.225816    1.990884    2.076112 
C       -0.978652    2.949957   -0.071544 
C       -0.091410    2.949988    1.044889 
C       -0.644169    1.549751   -2.099978 
C       -0.197610    2.589863   -1.265019 
C       -0.072060   -0.815142   -2.560789 
C        0.336241    0.537892   -2.545350 
C        0.021400   -2.715304   -1.168377 
C        0.803180   -1.871075   -2.079195 
C       -0.319738   -2.766629    1.256996 
C        0.539783   -3.008025    0.083824 
C        0.061524   -0.724472    2.710723 
C        0.499091   -2.043781    2.228919 
C        1.130554    1.454907    2.329469 
C        1.266586    0.127439    2.635069 
C        1.303257    2.922855    0.526715 
C        1.227436    2.708852   -0.881815 
C        2.079997    2.079374    1.372370 
C        1.737791    0.779047   -2.358704 
C        2.193221    1.891737   -1.470861 
C        2.141621   -1.609127   -1.820974 
C        2.632735   -0.303762   -2.172005 
C        1.907464   -2.580602    0.430727 
C        1.827881   -1.992116    1.784034 
C        2.378967   -0.659125    2.050215 
C        2.716287   -1.979827   -0.501666 
C        3.103105    1.324815    0.781401 
C        3.261441    1.415184   -0.648745 
C        3.631061    0.072765   -1.138724 
C        3.263866   -0.099829    1.161714 
C        3.572967   -0.844130   -0.088046 
