48
0 1
C       -3.239121    0.694507   -1.437161 
C       -2.930373   -0.635470   -1.746916 
C       -3.118722   -1.456440   -0.492913 
C       -3.436397    0.785898    0.064227 
C       -3.355338   -0.494245    0.602208 
C       -2.594320    1.887902    0.543682 
C       -2.326191    1.691403   -1.809010 
C       -2.048217    2.517104   -0.587021 
C       -1.080243    1.375414   -2.422733 
C       -1.677483   -0.984847   -2.333686 
C       -0.713446    0.013871   -2.683198 
C       -2.116969   -2.410849   -0.444292 
C       -1.239300   -2.220600   -1.641200 
C       -1.473016   -2.711742    0.810474 
C       -2.590622   -0.691475    1.803538 
C       -1.848085   -1.859431    1.943419 
C       -1.762181    1.702456    1.723846 
C       -1.809670    0.450513    2.383382 
C       -0.509953    2.412179    1.743503 
C       -0.674257    2.944038   -0.660581 
C       -0.079740    2.309833   -1.861424 
C        0.050077    3.027105    0.506098 
C        1.244978    1.997519   -1.883387 
C        0.715928   -0.339544   -2.665227 
C        1.683912    0.688938   -2.423712 
C        0.078366   -2.526362   -1.587462 
C        1.078383   -1.662766   -2.259394 
C       -0.085525   -2.924523    0.873494 
C        0.698664   -3.008837   -0.315267 
C       -0.588412   -1.544879    2.666292 
C       -0.611437   -0.128777    2.973061 
C        0.492383   -2.141030    2.015731 
C        0.590723    1.880266    2.447066 
C        0.611414    0.535640    2.925491 
C        1.500299    2.773176    0.472631 
C        2.108824    2.333886   -0.725765 
C        1.848522    2.106677    1.677005 
C        2.931955    0.399855   -1.795580 
C        3.122774    1.352007   -0.648633 
C        2.318034   -1.916374   -1.602652 
C        2.020466   -2.613682   -0.300643 
C        3.231543   -0.891717   -1.333733 
C        1.762731   -1.448431    1.903473 
C        1.824308   -0.132409    2.402978 
C        2.614641    0.905200    1.698241 
C        3.349795    0.573161    0.543556 
C        2.606633   -1.790988    0.771682 
C        3.423666   -0.823126    0.166509 
