48
0 1
C        3.819044    1.119051    0.417277 
C        3.656934   -0.148932    1.179747 
C        3.651252   -1.204547    0.285100 
C        3.614923    0.778767   -1.040541 
C        3.655109   -0.627579   -1.134856 
C        2.460223    1.487171   -1.506089 
C        2.823141    2.000199    0.806204 
C        2.110392    2.432801   -0.410929 
C        2.510884    0.058779    2.083350 
C        1.987731    1.408327    1.890247 
C        1.580494   -0.956842    2.236483 
C        2.601821   -2.218248    0.328676 
C        1.639823   -2.168627    1.370394 
C        2.637874   -1.274322   -1.846796 
C        2.098796   -2.387714   -0.996593 
C        1.371957    0.829928   -2.185830 
C        1.509100   -0.570281   -2.375279 
C       -0.002571    1.365010   -2.097422 
C        0.838888    2.828692   -0.270353 
C       -0.158954    2.534976   -1.314313 
C        0.616657    1.690157    1.962138 
C        0.122675    2.711269    1.041866 
C        0.187463   -0.637200    2.466154 
C       -0.351210    0.661353    2.341738 
C        0.302817   -2.589096    1.129561 
C       -0.591268   -1.796988    2.015377 
C        0.716476   -2.503462   -1.258893 
C        0.323939   -1.429183   -2.186341 
C       -0.174794   -2.832202   -0.198746 
C       -1.187156    0.517627   -2.265015 
C       -0.979668   -0.946299   -2.216240 
C       -2.462538    0.999637   -1.853289 
C       -1.406252    2.886788   -0.727016 
C       -1.214642    2.848583    0.786017 
C       -2.546328    2.183000   -1.032907 
C       -1.799752    0.798550    2.046679 
C       -2.235080    1.946192    1.312865 
C       -3.220366    1.808435    0.271413 
C       -1.925225   -1.702963    1.805829 
C       -2.602919   -0.386125    1.898407 
C       -1.548022   -2.625746   -0.479707 
C       -1.961451   -1.785830   -1.563369 
C       -2.494757   -2.409576    0.631918 
C       -3.490048    0.092907   -1.325998 
C       -3.896404    0.614914    0.061671 
C       -3.709448   -0.440721    0.981008 
C       -3.288032   -1.261608   -1.233866 
C       -3.591525   -1.699021    0.170268 
