48
0 1
C        2.344371    2.893946   -0.300452 
C        3.120769    1.807542    0.320680 
C        3.323068    0.784620   -0.692427 
C        1.796422    2.380211   -1.498381 
C        2.326807    1.042555   -1.765291 
C        0.356887    2.589366   -1.508275 
C        1.209430    3.187647    0.598290 
C        0.033510    3.227657   -0.259076 
C        2.470026    1.452227    1.534006 
C        1.209334    2.247936    1.644446 
C        2.475668    0.097410    1.913254 
C        3.535604   -0.512623   -0.246206 
C        3.220286   -0.814554    1.140602 
C        2.982588   -1.578729   -1.049003 
C        1.463612    0.031453   -2.217491 
C        1.940589   -1.315015   -1.966542 
C       -0.517739    1.594320   -2.065286 
C       -0.005447    0.277305   -2.359770 
C       -1.902592    1.772624   -1.701011 
C       -1.200935    2.965540    0.350712 
C       -2.222307    2.525607   -0.485423 
C       -0.031353    1.613000    2.084936 
C       -1.230464    2.156851    1.604073 
C        1.215119   -0.569032    2.338944 
C       -0.015653    0.188303    2.456373 
C        2.497820   -2.133528    1.169008 
C        2.492814   -2.665147   -0.101260 
C        1.242504   -1.917038    1.903042 
C        0.964970   -2.386581   -1.818867 
C        1.257434   -3.153749   -0.647598 
C       -0.933130   -0.846192   -2.270689 
C       -0.448498   -2.130489   -1.883426 
C       -2.809407    0.695644   -1.756333 
C       -2.327681   -0.634064   -1.953278 
C       -3.174802    1.707992    0.327723 
C       -2.489081    1.394183    1.566797 
C       -3.678509    0.707238   -0.506910 
C       -1.200662   -0.549113    2.383764 
C       -2.483392    0.061952    1.997475 
C        0.034185   -2.562014    1.431343 
C        0.044856   -3.187837    0.160534 
C       -1.038613   -2.856321   -0.773332 
C       -1.191979   -1.939659    1.855322 
C       -3.008565   -1.498936   -1.018639 
C       -3.747127   -0.620409   -0.026511 
C       -3.236685   -0.917417    1.247497 
C       -2.291430   -2.477232   -0.286221 
C       -2.372621   -2.137450    1.128877 
