46
0 1
C        3.899802   -0.216917   -1.194178 
C        4.038601   -1.108507   -0.007356 
C        3.869496   -0.334394    1.132004 
C        3.547930    1.146072   -0.665945 
C        3.523265    1.079570    0.734113 
C        2.326428    1.574180   -1.334611 
C        2.776908   -0.650868   -1.913934 
C        1.862815    0.473065   -2.168453 
C        2.873368   -2.069939   -0.061064 
C        2.155066   -1.814560   -1.239537 
C        2.693940   -0.830591    1.905359 
C        2.121472   -1.932500    1.201068 
C        2.317445    1.447129    1.441975 
C        1.843689    0.276229    2.204110 
C        1.344200    2.332123   -0.643703 
C        1.338181    2.259007    0.822212 
C        0.081298    2.416975   -1.303700 
C        0.496530    0.247416   -2.385130 
C       -0.358035    1.361883   -2.172680 
C        0.724918   -1.954968   -1.278522 
C       -0.065408   -1.093594   -2.115440 
C        0.714555   -2.080722    1.182534 
C        0.098356   -2.485655   -0.085275 
C        0.450985    0.048746    2.392608 
C       -0.092413   -1.242368    2.033389 
C        0.064352    2.299008    1.480954 
C       -0.389239    1.194103    2.264749 
C       -1.091542    2.893272   -0.585909 
C       -1.097339    2.838977    0.790246 
C       -1.824357    1.210767   -2.034311 
C       -2.294975    2.147687   -1.094249 
C       -1.470165   -1.257840   -2.085531 
C       -2.402346   -0.082287   -2.065229 
C       -1.284844   -2.700260   -0.106608 
C       -2.036568   -2.263021   -1.254376 
C       -1.520005   -1.411600    1.963527 
C       -2.070820   -2.354191    1.086016 
C       -1.857427    1.057091    2.102697 
C       -2.312435    2.061128    1.225437 
C       -3.089442    1.713576    0.046248 
C       -2.441637   -0.229593    2.028442 
C       -3.493041   -0.359465   -1.210029 
C       -3.365168   -1.779934   -0.774100 
C       -3.385693   -1.834826    0.609570 
C       -3.699640    0.453289   -0.006601 
C       -3.521062   -0.442693    1.139212 
