46
0 1
C        3.648534    1.184501    0.294226 
C        3.574619   -0.097594    1.063067 
C        3.513152   -1.143822    0.157522 
C        3.403791    0.849756   -1.140125 
C        3.453256   -0.538580   -1.254432 
C        2.189947    1.554557   -1.540322 
C        2.625419    2.022919    0.728174 
C        1.754595    2.360107   -0.411088 
C        2.515709    0.068547    2.066822 
C        1.976364    1.442114    1.919977 
C        1.605520   -0.958888    2.263352 
C        2.453270   -2.143348    0.228014 
C        1.538259   -2.107290    1.319421 
C        2.426027   -1.225474   -1.957860 
C        1.896328   -2.311448   -1.068357 
C        1.189834    0.887790   -2.331735 
C        1.318911   -0.549514   -2.503411 
C       -0.119404    1.387898   -2.268035 
C        0.389033    2.646668   -0.187061 
C       -0.494332    2.394289   -1.282316 
C        0.644393    1.690719    2.117373 
C       -0.170807    2.453328    1.129247 
C        0.232891   -0.655898    2.657564 
C       -0.232892    0.655895    2.657566 
C        0.170807   -2.453320    1.129242 
C       -0.644393   -1.690720    2.117368 
C        0.494337   -2.394281   -1.282313 
C        0.119408   -1.387895   -2.268036 
C       -0.389034   -2.646659   -0.187066 
C       -1.318906    0.549513   -2.503419 
C       -1.189832   -0.887790   -2.331736 
C       -1.896330    2.311452   -1.068359 
C       -2.426027    1.225476   -1.957864 
C       -1.538263    2.107294    1.319423 
C       -1.605522    0.958885    2.263354 
C       -2.453277    2.143356    0.228014 
C       -1.976365   -1.442114    1.919975 
C       -2.515712   -0.068552    2.066825 
C       -1.754592   -2.360102   -0.411089 
C       -2.189943   -1.554562   -1.540327 
C       -2.625416   -2.022918    0.728171 
C       -3.453260    0.538578   -1.254438 
C       -3.513157    1.143822    0.157520 
C       -3.574622    0.097582    1.063068 
C       -3.403789   -0.849764   -1.140126 
C       -3.648531   -1.184511    0.294228 
