46
0 1
C        3.883450   -1.146885    0.024448 
C        4.096257   -0.120401   -0.883575 
C        3.910928    1.172304   -0.165976 
C        3.424191   -0.565326    1.344968 
C        3.448433    0.828321    1.228060 
C        2.193121   -1.232277    1.711737 
C        2.760617   -2.002976   -0.445162 
C        1.857755   -2.190281    0.637897 
C        2.981228   -0.200776   -1.904304 
C        2.226190   -1.435683   -1.648092 
C        2.838478    1.836252   -0.772421 
C        2.256732    1.001164   -1.855936 
C        2.200903    1.544973    1.467620 
C        1.873275    2.263371    0.246233 
C        1.123147   -0.516938    2.306179 
C        1.125534    0.945626    2.187636 
C       -0.145305   -1.175200    2.324902 
C        0.505475   -2.496398    0.354415 
C       -0.398146   -2.268341    1.444338 
C        0.823263   -1.454082   -1.853637 
C        0.015254   -2.293386   -0.993124 
C        0.833442    1.021463   -2.056845 
C        0.196031   -0.235003   -2.366476 
C        0.547809    2.521132   -0.104737 
C        0.040358    2.051176   -1.413180 
C       -0.127718    1.601152    2.077856 
C       -0.367067    2.508170    0.990351 
C       -1.432302   -0.459400    2.525722 
C       -1.426254    0.948446    2.394431 
C       -1.826406   -2.353762    1.209647 
C       -2.476687   -1.184785    1.908099 
C       -1.408428   -2.303404   -1.209761 
C       -2.323280   -2.446234   -0.062630 
C       -1.212705   -0.238246   -2.544558 
C       -1.986126   -1.373858   -2.082425 
C       -1.356251    2.046276   -1.621962 
C       -1.959255    0.947700   -2.306541 
C       -1.789825    2.559961    0.738950 
C       -2.456527    1.557301    1.644585 
C       -2.278152    2.409063   -0.533440 
C       -3.431889   -0.591344    0.997924 
C       -3.424432   -1.416453   -0.219135 
C       -3.270296   -0.846192   -1.474289 
C       -3.251079    0.581776   -1.614210 
C       -3.420892    0.814908    0.859251 
C       -3.392847    1.387095   -0.492833 
