46
0 1
C        3.675700   -0.332480    1.080791 
C        3.779183   -0.685159   -0.254307 
C        2.885323   -1.844415   -0.521706 
C        2.657275   -1.220780    1.716940 
C        2.206289   -2.187424    0.693616 
C        1.682082   -0.406335    2.281032 
C        3.141458    1.057442    1.164899 
C        1.990617    1.028644    1.955046 
C        3.298489    0.436817   -1.119504 
C        3.014139    1.555292   -0.226012 
C        2.113663   -1.503453   -1.680422 
C        2.292234   -0.050655   -1.978808 
C        0.858730   -2.054672   -1.781705 
C        0.835092   -2.565330    0.651177 
C        0.316929   -2.800571   -0.657295 
C        0.306411   -0.837172    2.378736 
C       -0.106157   -2.042422    1.666202 
C       -0.627329    0.186220    2.651373 
C        0.894358    1.948648    1.731759 
C       -0.367784    1.591949    2.208519 
C        1.920842    2.321952   -0.531254 
C        0.961599    2.749121    0.527530 
C        1.127240    0.745274   -2.308721 
C        1.118641    2.041344   -1.731096 
C       -0.258781   -1.329861   -2.428334 
C       -0.163738    0.100203   -2.599984 
C       -1.106088   -2.878261   -0.875670 
C       -1.450388   -1.932320   -2.002386 
C       -1.499936   -2.247812    1.466937 
C       -1.986201   -2.695411    0.156148 
C       -2.014877   -0.066352    2.474004 
C       -2.445747   -1.261710    1.907061 
C       -1.602253    2.085983    1.590194 
C       -2.616127    1.084127    1.716598 
C       -0.215497    3.164310   -0.100915 
C       -0.126088    2.738743   -1.551521 
C       -1.526076    2.800078    0.374625 
C       -1.382284    0.807212   -2.394053 
C       -1.326112    2.165419   -1.903227 
C       -2.284864    2.285971   -0.748153 
C       -2.613960   -1.182319   -1.598776 
C       -3.057034   -1.724582   -0.302514 
C       -3.363219   -0.899345    0.748099 
C       -3.330699    0.559107    0.606724 
C       -2.564589    0.192266   -1.770026 
C       -3.040469    1.102718   -0.681625 
