46
0 1
C       -4.073432   -0.219396    0.182910 
C       -3.708918    0.826465    0.997413 
C       -3.013811    1.864836    0.184946 
C       -3.551417    0.072528   -1.208953 
C       -2.820024    1.339443   -1.156456 
C       -2.842964   -1.036272   -1.624217 
C       -3.346088   -1.448960    0.654633 
C       -2.772904   -2.023579   -0.462940 
C       -2.689232    0.353583    2.002410 
C       -2.441260   -1.040672    1.752613 
C       -1.889615    2.279042    0.936495 
C       -1.614680    1.275394    2.009601 
C       -0.799517    2.752140    0.227536 
C       -1.524565    1.448256   -1.759189 
C       -0.684438    2.433675   -1.177547 
C       -1.509226   -0.955805   -2.183631 
C       -0.821968    0.262819   -2.317903 
C       -1.438381   -2.540007   -0.430026 
C       -0.774576   -2.118094   -1.660851 
C       -1.098274   -1.498112    1.783847 
C       -0.687674   -2.494299    0.778404 
C       -0.274113    0.836783    2.207319 
C       -0.066471   -0.587234    2.265050 
C        0.542319    2.719308    0.819984 
C        0.823003    1.743104    1.785791 
C        0.723173    2.513046   -1.484833 
C        1.442422    2.920255   -0.320611 
C        0.663263    0.212656   -2.403745 
C        1.431970    1.408364   -2.125261 
C        0.596320   -2.175212   -1.745033 
C        1.357692   -0.998091   -2.188270 
C        0.691802   -2.806358    0.633167 
C        1.293977   -2.791423   -0.656707 
C        1.299352   -1.065422    2.257457 
C        1.654557   -2.223185    1.552142 
C        2.187070    1.225435    1.835367 
C        2.398463   -0.107278    2.158248 
C        2.728116    2.283149   -0.346504 
C        2.721069    1.348321   -1.551030 
C        3.138374    1.567627    0.744704 
C        2.679962   -1.075266   -1.520405 
C        2.641166   -2.169990   -0.569296 
C        2.929664   -1.971277    0.793044 
C        3.432098   -0.707640    1.207394 
C        3.331785    0.107706   -1.137214 
C        3.735929    0.259636    0.260145 
