46
0 1
C        3.817504   -0.707323    0.192527 
C        3.817503    0.707328   -0.192527 
C        3.080099    1.432212    0.888320 
C        3.014106   -0.839088    1.346560 
C        2.506889    0.485977    1.768851 
C        2.038949   -1.920076    1.167100 
C        3.080101   -1.432209   -0.888321 
C        2.181624   -2.353148   -0.219597 
C        3.014105    0.839092   -1.346560 
C        2.506891   -0.485974   -1.768851 
C        2.181624    2.353152    0.219597 
C        2.038947    1.920078   -1.167101 
C        1.043738    2.737486    0.919200 
C        1.134338    0.609424    2.221919 
C        0.508513    1.853042    1.981837 
C        0.767589   -1.876780    1.776295 
C        0.288485   -0.588944    2.351367 
C       -0.192486   -2.791899    1.217384 
C        1.043740   -2.737484   -0.919201 
C       -0.033692   -3.214870   -0.138586 
C        1.134338   -0.609423   -2.221918 
C        0.508515   -1.853041   -1.981838 
C        0.767586    1.876781   -1.776293 
C        0.288484    0.588942   -2.351366 
C       -0.033698    3.214871    0.138585 
C       -0.192491    2.791898   -1.217384 
C       -0.946557    2.004435    1.953525 
C       -1.306804    2.930084    0.876409 
C       -1.101493   -0.391648    2.455641 
C       -1.741174    0.894512    2.148551 
C       -1.616900   -2.567566    1.404277 
C       -2.038534   -1.416287    2.014417 
C       -1.306799   -2.930085   -0.876410 
C       -0.946554   -2.004434   -1.953525 
C       -2.290620   -2.635902    0.039781 
C       -1.101494    0.391647   -2.455640 
C       -1.741173   -0.894513   -2.148550 
C       -1.616906    2.567565   -1.404278 
C       -2.290627    2.635899   -0.039782 
C       -2.038538    1.416285   -2.014416 
C       -2.923813    0.648868    1.271969 
C       -3.085162   -0.750687    1.156694 
C       -3.104586   -1.434441   -0.104523 
C       -2.923812   -0.648872   -1.271968 
C       -3.104590    1.434436    0.104523 
C       -3.085165    0.750682   -1.156694 
