46
0 1
C       -3.586960   -1.123915   -0.437906 
C       -2.639496   -1.769431   -1.390970 
C       -1.887534   -2.682909   -0.679019 
C       -3.084418   -1.456921    0.937812 
C       -2.150968   -2.473267    0.813344 
C       -2.685466   -0.216826    1.591505 
C       -3.465672    0.254033   -0.597474 
C       -3.128757    0.872274    0.705129 
C       -1.929574   -0.700945   -2.113876 
C       -2.550479    0.530087   -1.726123 
C       -0.500403   -0.778060   -2.329623 
C       -0.467113   -2.775566   -0.850822 
C        0.204033   -1.941959   -1.807027 
C       -0.869947   -2.398512    1.447797 
C        0.103472   -2.926359    0.472969 
C       -1.426497   -0.131726    2.261251 
C       -0.512101   -1.267779    2.231361 
C       -0.839982    1.191648    2.346090 
C       -2.469701    2.081702    0.692339 
C       -1.416573    2.272402    1.668750 
C       -1.819077    1.729215   -1.678458 
C       -1.969857    2.610671   -0.581671 
C        0.226106    0.475877   -2.468956 
C       -0.406282    1.712407   -2.103113 
C        1.659309    0.466028   -2.356911 
C        1.634354   -1.904584   -1.663864 
C        2.349306   -0.747037   -2.066167 
C        1.468770   -2.745469    0.671122 
C        2.262218   -2.420022   -0.459395 
C        0.918023   -1.050149    2.388900 
C        1.860677   -1.878458    1.779420 
C        0.637866    1.389401    2.339573 
C        1.487307    0.326322    2.400744 
C       -0.323690    3.068271    1.014477 
C       -0.646864    3.224766   -0.329215 
C        0.281995    2.716689   -1.328689 
C        0.947380    2.518124    1.436185 
C        2.336775    1.522553   -1.631475 
C        1.624031    2.505408   -0.939660 
C        1.969375    2.387712    0.510766 
C        3.431623   -0.458621   -1.033512 
C        3.321265   -1.451444   -0.020383 
C        3.024133   -1.060846    1.297362 
C        2.750175    0.316202    1.627292 
C        3.323880    0.883061   -0.688589 
C        2.955340    1.305950    0.648711 
