46
0 1
C        3.884615   -0.824655   -0.312857 
C        3.682133    0.234837   -1.320693 
C        3.286419    1.468862   -0.581924 
C        3.486515   -0.308343    0.938422 
C        3.197962    1.135540    0.810845 
C        2.450748   -1.176970    1.544329 
C        2.916806   -1.902133   -0.647655 
C        2.229078   -2.238076    0.601325 
C        2.584910   -0.127154   -2.121932 
C        2.107725   -1.467967   -1.716378 
C        2.124200    2.011855   -1.244338 
C        1.595813    0.966667   -2.163952 
C        1.213860    2.727704   -0.476801 
C        2.131180    1.657845    1.561316 
C        1.339524    2.659098    0.957878 
C        1.341759   -0.626777    2.285567 
C        1.198024    0.783297    2.347606 
C        0.117274   -1.386374    2.329278 
C        0.955404   -2.804670    0.482326 
C        0.031283   -2.575790    1.515947 
C        0.689112   -1.740068   -1.739570 
C        0.213247   -2.667204   -0.802375 
C        0.239558    0.710173   -2.246452 
C       -0.239576   -0.710172   -2.246450 
C       -0.213248    2.667209   -0.802381 
C       -0.689117    1.740068   -1.739570 
C       -0.031274    2.575804    1.515949 
C       -0.117245    1.386361    2.329297 
C       -0.955396    2.804675    0.482344 
C       -1.198020   -0.783291    2.347604 
C       -1.341735    0.626757    2.285583 
C       -1.339511   -2.659091    0.957880 
C       -1.213863   -2.727692   -0.476787 
C       -2.131173   -1.657846    1.561324 
C       -1.595826   -0.966666   -2.163951 
C       -2.124213   -2.011855   -1.244327 
C       -2.107740    1.467967   -1.716365 
C       -2.584922    0.127152   -2.121928 
C       -2.229076    2.238067    0.601343 
C       -2.450741    1.176970    1.544338 
C       -2.916822    1.902145   -0.647652 
C       -3.197959   -1.135546    0.810860 
C       -3.286418   -1.468865   -0.581922 
C       -3.682136   -0.234839   -1.320692 
C       -3.486513    0.308338    0.938440 
C       -3.884625    0.824656   -0.312850 
