46
0 1
C        2.474695   -2.661150    0.031000 
C        3.172977   -1.369278    0.054789 
C        2.795431   -0.706818    1.237957 
C        1.575573   -2.697588    1.223541 
C        1.680962   -1.455562    1.894353 
C        0.292526   -3.172212    0.772243 
C        1.648598   -2.690051   -1.102306 
C        0.320357   -3.164413   -0.713440 
C        2.866718   -0.700447   -1.227087 
C        1.795364   -1.419401   -1.851139 
C        2.866743    0.700407   -1.227043 
C        2.795426    0.706763    1.238003 
C        3.172999    1.369226    0.054835 
C        1.680954    1.455525    1.894376 
C        0.504462   -0.745310    2.336229 
C        0.504472    0.745258    2.336244 
C       -0.830657   -2.668650    1.423268 
C       -0.717511   -1.436942    2.216037 
C       -2.063655   -2.601613    0.668450 
C       -0.756105   -2.668227   -1.412894 
C       -2.023704   -2.593504   -0.723982 
C        0.621691   -0.736455   -2.331273 
C       -0.616869   -1.426369   -2.236433 
C        1.795418    1.419380   -1.851125 
C        0.621703    0.736493   -2.331265 
C        2.474749    2.661110    0.031054 
C        1.575614    2.697556    1.223581 
C        1.648653    2.690042   -1.102272 
C        0.292557    3.172194    0.772254 
C        0.320422    3.164420   -0.713428 
C       -0.717507    1.436893    2.216088 
C       -0.830602    2.668604    1.423303 
C       -1.999612   -0.709328    2.039411 
C       -2.813548   -1.386607    1.114028 
C       -1.999616    0.709312    2.039419 
C       -2.748619   -1.381010   -1.208370 
C       -1.869420   -0.707788   -2.123572 
C       -3.309971   -0.706182   -0.081090 
C       -0.616834    1.426440   -2.236393 
C       -0.756078    2.668295   -1.412874 
C       -1.869398    0.707868   -2.123571 
C       -2.063612    2.601623    0.668479 
C       -2.813529    1.386625    1.114038 
C       -3.309957    0.706233   -0.081099 
C       -2.023666    2.593562   -0.723958 
C       -2.748597    1.381077   -1.208366 
