46
0 1
C       -3.885985    0.349673   -0.134327 
C       -3.604876   -0.613892   -1.197533 
C       -2.983831   -1.729144   -0.623922 
C       -3.358988   -0.251724    1.141894 
C       -2.800447   -1.517530    0.842345 
C       -2.541148    0.747502    1.794577 
C       -3.152430    1.515513   -0.376939 
C       -2.458744    1.908282    0.865414 
C       -2.584209    0.029700   -2.102411 
C       -2.323893    1.352710   -1.609234 
C       -1.785293   -2.046641   -1.416502 
C       -1.494958   -0.860216   -2.277830 
C       -0.760489   -2.682269   -0.814680 
C       -1.563215   -1.926135    1.448251 
C       -0.690396   -2.788283    0.678978 
C       -1.374880    0.351711    2.435771 
C       -0.912173   -1.026072    2.332771 
C       -0.181941    1.215545    2.456990 
C       -1.295077    2.593507    0.759335 
C       -0.190346    2.390963    1.720167 
C       -1.013492    1.850443   -1.654017 
C       -0.644085    2.785591   -0.579126 
C       -0.156200   -0.383858   -2.391596 
C        0.048320    1.039345   -2.232510 
C        0.616347   -2.496950   -1.313190 
C        0.936582   -1.337673   -2.103302 
C        0.653109   -2.924242    1.002110 
C        1.465801   -2.939825   -0.267902 
C        0.546572   -1.003454    2.478808 
C        1.018308    0.385880    2.467864 
C        1.327015   -2.007506    1.913030 
C        2.215908    0.770117    1.798220 
C        1.021577    2.814150    1.089826 
C        0.667324    3.131361   -0.352014 
C        2.204301    2.048374    1.102579 
C        1.417951    1.503445   -2.102068 
C        1.728278    2.588313   -1.144248 
C        2.759329    2.139621   -0.269632 
C        2.261378   -0.843691   -1.976433 
C        2.473505    0.593135   -2.046339 
C        3.363994    0.981494   -0.869031 
C        2.690109   -2.293269   -0.020382 
C        2.604036   -1.638340    1.350339 
C        3.026257   -0.301964    1.245353 
C        3.126183   -1.336820   -0.928035 
C        3.584909   -0.136878   -0.121416 
