46
0 1
C        3.524096    0.615934    0.033253 
C        2.971744    1.853155    0.219237 
C        2.254418    2.246146   -1.062438 
C        3.160395    0.145023   -1.369634 
C        2.168989    1.073036   -1.911901 
C        2.930955   -1.199625   -1.324173 
C        3.242241   -0.496573    0.941685 
C        3.092195   -1.678629    0.109295 
C        2.303226   -0.288303    1.957633 
C        2.036554    2.115471    1.318419 
C        1.676197    1.038524    2.148864 
C        1.122060    2.940468   -0.710275 
C        0.978409    2.926111    0.793587 
C       -0.150403    2.593768   -1.271417 
C        0.906111    0.605438   -2.354569 
C       -0.256903    1.485809   -2.157763 
C        1.679078   -1.744040   -1.831860 
C        0.684979   -0.866981   -2.377698 
C        2.094682   -2.601977    0.345790 
C        1.281419   -2.766097   -0.912725 
C        1.269999   -1.294660    2.223561 
C        1.146464   -2.438519    1.427503 
C        0.288601    0.857199    2.523791 
C        0.057167   -0.602431    2.647706 
C       -0.377891    2.704674    1.088253 
C       -1.132665    2.775807   -0.191308 
C       -0.748519    1.701237    2.048571 
C       -2.387398    2.228656   -0.301234 
C       -1.594562    0.961228   -2.281287 
C       -2.654341    1.421186   -1.473544 
C       -0.641249   -1.365550   -2.305290 
C       -1.775490   -0.481879   -2.437543 
C       -0.066616   -2.976484   -0.548111 
C       -0.183302   -2.834273    0.924927 
C       -1.045458   -2.395370   -1.357014 
C       -1.183305   -1.147276    2.391676 
C       -1.325244   -2.265725    1.439553 
C       -2.093494    1.165281    1.922554 
C       -2.931768    1.525970    0.856743 
C       -2.311348   -0.265860    2.169732 
C       -3.474399    0.218482   -1.022678 
C       -2.861884   -0.939233   -1.632479 
C       -2.363031   -2.039766   -0.801087 
C       -2.502634   -1.974908    0.581421 
C       -3.633240    0.279560    0.345704 
C       -3.174838   -0.814002    1.176567 
