46
0 1
C       -3.777818   -1.492812    0.189192 
C       -4.162604   -0.294682    0.759117 
C       -4.083578    0.758286   -0.285692 
C       -3.286155   -1.248117   -1.225862 
C       -3.436885    0.122513   -1.505401 
C       -1.983579   -1.820133   -1.336596 
C       -2.602840   -2.030434    0.930913 
C       -1.649108   -2.443168   -0.026988 
C       -3.112976    0.060186    1.798393 
C       -2.172726   -1.059486    1.907983 
C       -3.191131    1.727437    0.163055 
C       -2.563525    1.298609    1.458313 
C       -2.266038    0.898000   -1.868620 
C       -2.248914    2.035553   -0.924748 
C       -0.921855   -1.126360   -1.995516 
C       -1.011961    0.306221   -2.198010 
C        0.372748   -1.687415   -1.814408 
C       -0.305468   -2.532451    0.369405 
C        0.615386   -2.585805   -0.730604 
C       -0.776987   -0.825526    2.084082 
C        0.121237   -1.829616    1.555809 
C       -1.164381    1.572301    1.679192 
C       -0.263444    0.546575    2.154336 
C       -1.064730    2.581621   -0.591553 
C       -0.608926    2.584681    0.836484 
C        0.243900    1.089872   -2.083843 
C        0.126927    2.316828   -1.401098 
C        1.632478   -0.972681   -2.099242 
C        1.586384    0.462168   -2.119867 
C        2.016413   -2.622057   -0.458717 
C        2.685481   -1.685979   -1.452249 
C        1.526101   -1.651024    1.736589 
C        2.477049   -2.321444    0.819002 
C        1.178765    0.774283    2.121604 
C        2.059537   -0.374227    2.073685 
C        0.760941    2.809044    0.825950 
C        1.224225    2.843750   -0.626937 
C        1.679439    1.983435    1.541171 
C        2.719777    1.115190   -1.519793 
C        2.466987    2.295190   -0.695663 
C        2.905337    1.954866    0.717974 
C        3.731592   -1.025256   -0.759674 
C        3.655560   -1.452873    0.697727 
C        3.413945   -0.295612    1.462470 
C        3.736604    0.373173   -0.805038 
C        3.718822    0.867377    0.643673 
