46
0 1
C        3.292098    1.166166    0.241789 
C        2.436680    2.235578    0.396623 
C        1.735738    2.485423   -0.911606 
C        3.150830    0.681484   -1.194479 
C        2.050750    1.433336   -1.809432 
C        3.150836   -0.681390   -1.194529 
C        3.196947   -0.000035    1.108316 
C        3.292098   -1.166171    0.241717 
C        2.212333   -0.000073    2.104991 
C        1.427945    2.265972    1.435284 
C        1.358237    1.180855    2.309742 
C        0.397510    2.874153   -0.626837 
C        0.188063    2.803115    0.844092 
C       -0.589956    2.432595   -1.494123 
C        0.989822    0.740791   -2.491696 
C       -0.262581    1.420628   -2.495240 
C        2.050769   -1.433217   -1.809526 
C        0.989830   -0.740617   -2.491757 
C        2.436677   -2.235605    0.396481 
C        1.735756   -2.485360   -0.911769 
C        1.358237   -1.181010    2.309665 
C        1.427945   -2.266076    1.435144 
C        0.045493    0.732482    2.780964 
C        0.045489   -0.732673    2.780912 
C       -1.037338    2.431695    1.337090 
C       -1.107238    1.430903    2.419449 
C       -1.960862    2.178796   -0.987288 
C       -2.183593    2.181021    0.420629 
C       -1.486388    0.687586   -2.735952 
C       -2.541420    1.165321   -1.768163 
C       -0.262560   -1.420441   -2.495342 
C       -1.486380   -0.687395   -2.735993 
C        0.397519   -2.874112   -0.627021 
C        0.188066   -2.803187    0.843917 
C       -0.589949   -2.432494   -1.494294 
C       -1.107241   -1.431066    2.419349 
C       -1.037340   -2.431788    1.336926 
C       -2.333711    0.693304    2.238251 
C       -2.990238    1.167189    0.970255 
C       -2.333713   -0.693456    2.238200 
C       -3.171593    0.000032   -1.180421 
C       -2.541412   -1.165208   -1.768245 
C       -1.960867   -2.178736   -0.987443 
C       -2.183596   -2.181050    0.420472 
C       -3.397453   -0.000009    0.210723 
C       -2.990240   -1.167256    0.970175 
