46
0 1
C        3.106525    1.588948    0.558256 
C        3.513184    0.288300    0.673212 
C        3.484687   -0.341694   -0.713322 
C        2.747168    1.832092   -0.905102 
C        2.766320    0.551194   -1.593264 
C        1.632551    2.627782   -0.926556 
C        1.997244    2.122682    1.355783 
C        1.183935    2.904118    0.483871 
C        1.338500    1.239851    2.237841 
C        2.831498   -0.651176    1.576067 
C        1.743022   -0.153716    2.328777 
C        3.092863   -1.662831   -0.553299 
C        2.669218   -1.881475    0.882612 
C        2.056243   -2.159149   -1.380135 
C        1.580308    0.109721   -2.279037 
C        1.295692   -1.299065   -2.219742 
C        0.458209    2.259564   -1.688466 
C        0.427171    1.019778   -2.381428 
C       -0.230886    2.863534    0.501438 
C       -0.682203    2.699830   -0.888973 
C       -0.119203    1.304162    2.366452 
C       -0.920945    2.152226    1.543509 
C        0.530240   -0.961152    2.469213 
C       -0.577745   -0.036073    2.689000 
C        1.418115   -2.580543    0.868359 
C        1.108653   -2.895476   -0.501610 
C        0.335632   -2.149793    1.716359 
C       -0.105544   -1.797078   -2.167871 
C       -0.197423   -2.760594   -1.042329 
C       -0.899293    0.477521   -2.592360 
C       -1.160438   -0.979561   -2.423083 
C       -1.954203    2.209861   -1.158972 
C       -2.044812    1.144402   -2.145760 
C       -2.279641    1.746096    1.272338 
C       -2.818619    1.884669   -0.068175 
C       -1.895380   -0.420678    2.414450 
C       -2.781119    0.528625    1.814828 
C       -1.012287   -2.433450    1.263074 
C       -1.281901   -2.693725   -0.179836 
C       -2.094599   -1.698193    1.752362 
C       -2.451539   -1.142606   -1.709003 
C       -3.053300    0.149708   -1.632679 
C       -3.575355    0.652014   -0.417948 
C       -3.585935   -0.184867    0.732271 
C       -2.493916   -1.987541   -0.571188 
C       -3.100693   -1.486241    0.640066 
