46
0 1
C       -3.822769   -0.473721   -0.739207 
C       -3.498778    0.956810   -0.648172 
C       -3.257055    1.284149    0.687792 
C       -3.604370   -1.065415    0.638757 
C       -3.221298    0.019019    1.505888 
C       -2.729085   -2.132821    0.497561 
C       -2.930820   -1.085843   -1.635665 
C       -2.335412   -2.236753   -0.969857 
C       -2.452924    1.230735   -1.644536 
C       -2.011494   -0.075983   -2.211096 
C       -1.506442    2.178246   -1.350756 
C       -2.101580    2.063500    1.059616 
C       -1.387579    2.721587    0.034740 
C       -2.000840    0.003711    2.207111 
C       -1.345582    1.339485    2.057495 
C       -1.494188   -2.202585    1.252440 
C       -1.149899   -1.168330    2.184091 
C       -0.979957   -2.433045   -1.028440 
C       -0.458899   -2.658727    0.351113 
C       -0.657302   -0.343587   -2.390114 
C       -0.124310   -1.659872   -1.927884 
C       -0.138116    2.026701   -1.867629 
C        0.304653    0.780086   -2.402516 
C       -0.030514    3.010565    0.261358 
C        0.731692    2.750805   -1.003814 
C        0.053425    1.506796    2.193038 
C        0.723124    2.433240    1.325633 
C        0.227271   -0.996732    2.441519 
C        0.827326    0.356239    2.605444 
C        0.903605   -2.540773    0.633197 
C        1.232030   -1.837964    1.840066 
C        1.219976   -1.863334   -1.776214 
C        1.809253   -2.415382   -0.496427 
C        1.697317    0.530743   -2.330125 
C        2.175393   -0.856954   -2.247061 
C        2.027855    2.308412   -0.670059 
C        2.084407    2.161797    0.811949 
C        2.593388    1.316598   -1.491048 
C        2.188817    0.269625    2.320532 
C        2.503140   -1.141658    1.918045 
C        2.848487    1.148630    1.363130 
C        3.090159   -1.868007   -0.340890 
C        3.338037   -0.926435   -1.476004 
C        3.588315    0.419367   -0.897912 
C        3.403186   -1.140805    0.870977 
C        3.668359    0.307882    0.483932 
