46
0 1
C       -3.688581    0.776415    0.548121 
C       -3.565332   -0.619545    0.649438 
C       -3.426521   -1.151708   -0.704567 
C       -3.284056    1.189659   -0.845413 
C       -3.131236    0.048640   -1.611421 
C       -2.171537    2.108046   -0.732354 
C       -2.725937    1.395939    1.456758 
C       -1.969899    2.343838    0.729719 
C       -2.499819   -0.927776    1.629143 
C       -2.003594    0.341839    2.149592 
C       -1.577744   -1.980488    1.385240 
C       -2.476269   -2.094098   -0.951799 
C       -1.575105   -2.617761    0.079825 
C       -1.873611   -0.226571   -2.299743 
C       -1.582606   -1.612487   -2.072943 
C       -1.026590    1.958742   -1.550918 
C       -0.790347    0.695686   -2.274528 
C        0.129221    2.716889   -1.127868 
C       -0.679850    2.648279    1.191449 
C        0.252628    3.135335    0.216125 
C       -0.617873    0.537298    2.474273 
C        0.020758    1.762812    2.081476 
C       -0.298957   -1.875132    2.028236 
C        0.207178   -0.605335    2.520222 
C        0.822003   -2.602582    1.520425 
C       -0.335072   -2.879315   -0.574796 
C       -0.290960   -2.082564   -1.840592 
C        0.849024   -3.017332    0.166376 
C        0.567701    0.153262   -2.384311 
C        0.826288   -1.240611   -2.134663 
C        1.441517    2.337125   -1.602493 
C        1.669803    1.090846   -2.178432 
C        1.612233    2.793548    0.710093 
C        1.468712    1.834776    1.748745 
C        2.414485    2.515189   -0.434189 
C        1.676678   -0.540534    2.274560 
C        2.064878   -1.810501    1.792363 
C        2.303655    0.658633    1.771749 
C        2.088565   -2.564299   -0.444148 
C        2.086913   -1.698846   -1.543610 
C        2.919699   -1.931124    0.660339 
C        2.951781    0.595094   -1.638961 
C        3.257143    1.430185   -0.404625 
C        3.289725    0.513577    0.731755 
C        3.145365   -0.709456   -1.318567 
C        3.525544   -0.793586    0.154920 
