46
0 1
C        3.488894   -1.096181    0.604017 
C        2.511606   -2.035952    1.222678 
C        1.907210   -2.750037    0.204980 
C        3.215425   -1.105158   -0.876465 
C        2.328209   -2.137822   -1.127294 
C        2.847421    0.245823   -1.275041 
C        3.205482    0.179681    1.070363 
C        3.032962    1.086749   -0.077192 
C        1.646171   -1.250904    2.108015 
C        2.101923    0.127043    2.057443 
C        0.255863   -1.548964    2.193246 
C        0.482839   -2.945543    0.162344 
C       -0.342489   -2.509436    1.236201 
C        1.126382   -1.928665   -1.887292 
C        0.066516   -2.702174   -1.218899 
C        1.719537    0.475053   -2.114953 
C        0.835626   -0.651376   -2.436342 
C        1.139829    1.795401   -2.044491 
C        2.291477    2.222537    0.091735 
C        1.569392    2.709061   -1.056322 
C        1.206296    1.213154    2.160439 
C        1.391042    2.379516    1.290825 
C       -0.550727   -0.472556    2.666953 
C       -0.115274    0.899888    2.568080 
C       -1.987384   -0.497591    2.430286 
C       -1.748639   -2.429031    0.933473 
C       -2.571614   -1.429900    1.621207 
C       -1.268973   -2.456415   -1.501879 
C       -2.199958   -2.472202   -0.409468 
C       -0.566298   -0.390740   -2.677034 
C       -1.557723   -1.319668   -2.352984 
C       -0.332666    2.007348   -2.196355 
C       -1.145128    0.953418   -2.420161 
C        0.399004    3.464207   -0.542566 
C        0.302591    3.162301    0.909974 
C       -0.750967    2.987845   -1.168496 
C       -1.275854    1.713962    2.104557 
C       -2.389119    0.875557    1.959528 
C       -1.069737    2.703313    1.126822 
C       -1.735376    2.568087   -0.148216 
C       -3.385541   -0.689117    0.571810 
C       -3.185471   -1.342592   -0.629307 
C       -2.739268   -0.595329   -1.764808 
C       -2.426603    0.765470   -1.663045 
C       -3.095237    0.731630    0.710017 
C       -2.631652    1.490310   -0.416384 
