46
0 1
C       -1.500983   -2.629460   -1.277049 
C       -2.036437   -2.619010   -0.006084 
C       -2.973371   -1.454543    0.110698 
C       -2.025567   -1.428587   -2.021231 
C       -2.949612   -0.734378   -1.155449 
C       -0.948245   -0.775998   -2.636929 
C       -0.067687   -2.691484   -1.494089 
C        0.270916   -1.613720   -2.434188 
C        0.765281   -2.945487   -0.416077 
C       -1.170294   -2.602131    1.162895 
C        0.191438   -2.935782    0.964806 
C       -2.701489   -0.807386    1.329183 
C       -1.529087   -1.473811    1.982540 
C       -2.835365    0.600757    1.373827 
C       -2.881061    0.662356   -1.117848 
C       -3.047500    1.307620    0.165341 
C       -0.861404    0.670038   -2.597734 
C       -1.826145    1.369004   -1.848532 
C        0.478334    1.226974   -2.695126 
C        1.516145   -1.026889   -2.379052 
C        1.598405    0.393369   -2.659462 
C        2.091115   -2.310919   -0.350318 
C        2.452909   -1.342041   -1.284763 
C        1.135107   -2.356119    1.828507 
C        2.378275   -2.050290    1.046114 
C       -0.527360   -0.705029    2.661623 
C        0.814886   -1.205513    2.636153 
C       -1.867707    1.365300    2.169228 
C       -0.671127    0.729244    2.703328 
C       -2.176627    2.524526    0.175611 
C       -1.438990    2.544574   -0.999037 
C       -1.503868    2.542878    1.463611 
C        0.810334    2.421132   -1.891411 
C       -0.052853    2.936002   -0.949932 
C        2.635468    0.966107   -1.732490 
C        3.078330   -0.077522   -0.843455 
C        2.151345    2.171564   -1.251824 
C        2.862712   -0.824147    1.466552 
C        1.920947   -0.283566    2.504257 
C        3.153369    0.234354    0.526265 
C        0.432626    1.609778    2.419996 
C       -0.049599    2.689963    1.525011 
C        0.650536    2.973859    0.379155 
C        2.006326    2.408323    0.165552 
C        1.725018    1.081063    2.240723 
C        2.522554    1.465029    1.041107 
