46
0 1
C        3.381507   -0.706968   -0.267912 
C        2.864524   -0.681846   -1.543987 
C        2.462442    0.720694   -1.891671 
C        3.381491    0.707030    0.267920 
C        2.786878    1.575114   -0.763376 
C        2.864505    0.681899    1.543992 
C        2.786907   -1.575061    0.763380 
C        2.462450   -0.720647    1.891673 
C        1.848556   -2.509488    0.384953 
C        1.756589   -1.543802   -1.934114 
C        1.408009   -2.606947   -1.044844 
C        1.171805    0.682370   -2.437276 
C        0.730701   -0.739867   -2.502569 
C        0.234845    1.739696   -2.159086 
C        1.848506    2.509522   -0.384951 
C        0.648562    2.730993   -1.213478 
C        1.756554    1.543833    1.934116 
C        1.407954    2.606974    1.044846 
C        1.171815   -0.682346    2.437270 
C        0.730685    0.739880    2.502569 
C        0.648615   -2.730978    1.213473 
C        0.234878   -1.739690    2.159079 
C        0.100246   -3.067635   -1.067373 
C       -0.334674   -3.332112    0.350616 
C       -0.668879   -1.082063   -2.378993 
C       -0.982854   -2.337108   -1.720491 
C       -1.157819    1.400705   -2.233494 
C       -1.591081   -0.026998   -2.273855 
C       -2.104122    2.110292   -1.454906 
C       -0.334739    3.332106   -0.350618 
C        0.100188    3.067639    1.067374 
C       -1.680363    3.017424   -0.449456 
C       -0.668905    1.082048    2.378995 
C       -0.982904    2.337091    1.720491 
C       -2.126721    2.440031    0.887421 
C       -1.157791   -1.400725    2.233491 
C       -1.591079    0.026969    2.273859 
C       -1.680303   -3.017453    0.449454 
C       -2.126673   -2.440068   -0.887420 
C       -2.104080   -2.110331    1.454905 
C       -2.775049   -0.144111   -1.410792 
C       -3.022110    1.118954   -0.817361 
C       -2.950975    1.305169    0.612752 
C       -2.775057    0.144055    1.410789 
C       -2.950948   -1.305228   -0.612758 
C       -3.022090   -1.119011    0.817363 
