46
0 1
C        3.838296    0.198538    0.790601 
C        3.858298   -0.297873   -0.600629 
C        3.111777   -1.578452   -0.599792 
C        3.068757   -0.694338    1.553320 
C        2.630702   -1.828201    0.703022 
C        2.015055    0.066460    2.251728 
C        3.110287    1.505957    0.778776 
C        2.044402    1.455819    1.719332 
C        3.147288    0.603190   -1.410134 
C        2.795189    1.797332   -0.606665 
C        2.133074   -1.491200   -1.689893 
C        2.048503   -0.096087   -2.132753 
C        0.971433   -2.198661   -1.575197 
C        1.313705   -2.392065    0.896109 
C        0.638447   -2.868565   -0.282316 
C        0.808808   -0.521471    2.467047 
C        0.477913   -1.857792    1.909818 
C       -0.433877    0.266415    2.503397 
C        0.808240    2.141162    1.474535 
C       -0.453245    1.605650    2.031881 
C        1.591620    2.390915   -0.865728 
C        0.741601    2.826012    0.233365 
C        0.799954    0.497123   -2.364533 
C        0.669912    1.889444   -1.940853 
C       -0.270802   -1.682567   -2.141746 
C       -0.438056   -0.303824   -2.403482 
C       -0.743369   -3.078058   -0.268262 
C       -1.326979   -2.460303   -1.523362 
C       -0.959111   -1.953464    1.862973 
C       -1.528996   -0.654670    2.303742 
C       -1.582713   -2.667898    0.823705 
C       -2.748801   -0.189657    1.793790 
C       -1.716087    2.069886    1.518194 
C       -2.830253    1.195740    1.445455 
C       -0.540018    3.124772   -0.364591 
C       -0.567162    2.439126   -1.720415 
C       -1.711775    2.859697    0.275934 
C       -1.771935    0.297443   -2.131226 
C       -3.415614    1.273294    0.040993 
C       -1.821324    1.691550   -1.795926 
C       -2.624488    2.156635   -0.705128 
C       -2.541885   -1.909733   -1.236217 
C       -2.812183   -2.121508    0.247199 
C       -3.384608   -0.971842    0.724178 
C       -2.810194   -0.511949   -1.551636 
C       -3.589786   -0.021983   -0.438611 
