46
0 1
C        2.888844   -2.127899    0.056134 
C        3.269356   -0.747640    0.433996 
C        2.589310   -0.392819    1.648392 
C        1.897548   -2.565455    0.941126 
C        1.757489   -1.568639    2.014452 
C        0.698648   -2.973007    0.188095 
C        2.290545   -2.051056   -1.299482 
C        0.989725   -2.696977   -1.198185 
C        3.125086    0.068237   -0.724994 
C        2.377179   -0.730843   -1.763926 
C        2.809086    1.405260   -0.540289 
C        2.091572    0.939899    1.805191 
C        2.345598    1.866997    0.757660 
C        0.844698    1.089876    2.537162 
C        0.509539   -1.384133    2.546208 
C        0.163086   -0.046932    2.973708 
C       -0.610001   -2.746098    0.733930 
C       -0.712845   -2.002967    1.951494 
C       -1.693847   -2.612991   -0.211242 
C       -0.040288   -2.208985   -2.029309 
C       -1.360299   -2.391834   -1.607354 
C        1.245677   -0.113177   -2.451061 
C        0.088322   -0.860011   -2.632967 
C        2.013230    2.077708   -1.579374 
C        1.106002    1.330987   -2.337958 
C        1.385435    2.953281    0.486169 
C        1.276448    3.151426   -0.897448 
C       -0.201963    2.076244    2.111738 
C        0.035075    2.933189    1.079044 
C       -1.299057    0.122841    2.773678 
C       -1.812928   -1.093229    2.180551 
C       -1.519484    1.397368    2.228119 
C       -2.828032   -1.801087    0.086551 
C       -2.855600   -0.955419    1.231588 
C       -2.169771   -1.233544   -2.110543 
C       -1.276274   -0.246643   -2.588764 
C       -3.138142   -0.939332   -1.126867 
C       -0.257042    1.937478   -2.181169 
C       -0.148175    3.015199   -1.281592 
C       -0.935925    3.017277   -0.059533 
C       -1.438242    1.118904   -2.183055 
C       -2.477796    1.525423    1.183434 
C       -3.209905    0.393324    0.800860 
C       -3.287937    0.378643   -0.699336 
C       -2.086002    2.268675   -0.042366 
C       -2.437942    1.422482   -1.202466 
