46
0 1
C       -3.463041   -0.474111    0.179544 
C       -3.216298    0.036151   -1.086471 
C       -2.403025   -0.960942   -1.862712 
C       -2.911056   -1.877225    0.231772 
C       -2.237910   -2.131748   -1.053379 
C       -2.220839   -2.032215    1.413988 
C       -2.979849    0.238345    1.359411 
C       -2.201214   -0.722526    2.146969 
C       -2.461308    1.505332    1.197268 
C       -2.615946    1.333105   -1.274629 
C       -2.437349    2.139154   -0.137429 
C       -1.305848   -0.284112   -2.447845 
C       -1.495572    1.164215   -2.215152 
C        0.003229   -0.868685   -2.441708 
C       -0.978718   -2.716684   -1.043450 
C        0.074681   -2.181272   -1.894980 
C       -0.865351   -2.556262    1.447446 
C       -0.343701   -3.113498    0.253397 
C       -0.894275   -0.472846    2.551147 
C       -0.044677   -1.653267    2.206481 
C       -1.191533    1.887657    1.883552 
C       -0.341597    0.869139    2.476736 
C       -1.347190    3.070516   -0.147040 
C       -0.612709    2.944894    1.167337 
C       -0.385734    1.982870   -2.140243 
C       -0.395409    3.049102   -1.159560 
C        1.185815    0.026871   -2.360785 
C        0.973784    1.405655   -2.186377 
C        2.435815   -0.503417   -1.832458 
C        1.332130   -2.645917   -1.328118 
C        1.043888   -3.091483    0.088101 
C        2.458389   -1.882508   -1.328338 
C        1.353416   -1.519869    1.969978 
C        1.930236   -2.361560    0.955998 
C        2.984389   -1.832210    0.097153 
C        1.043446    0.991370    2.351346 
C        1.924934   -0.203357    2.162992 
C        0.800272    2.994278    0.890384 
C        0.964490    3.096645   -0.540655 
C        1.801997    2.200158   -1.247440 
C        1.639233    2.095614    1.581616 
C        3.236946    0.256553   -0.957970 
C        3.497178   -0.571531    0.295202 
C        3.036561    0.207364    1.402935 
C        2.845669    1.569972   -0.529162 
C        2.783650    1.592283    0.905145 
