46
0 1
C       -3.600737    0.084761   -1.009611 
C       -3.596052    0.106464    0.492273 
C       -3.161104   -1.145892    0.925803 
C       -2.946959   -1.187176   -1.426199 
C       -2.757965   -1.959755   -0.294772 
C       -1.767373   -0.832258   -2.219372 
C       -2.812183    1.137638   -1.459348 
C       -1.704477    0.612740   -2.289849 
C       -2.868781    1.291211    0.912393 
C       -2.462351    2.014640   -0.322625 
C       -1.925702    1.181778    1.938482 
C       -2.095138   -1.280493    1.880102 
C       -1.537531   -0.131918    2.447370 
C       -1.484877   -2.581681   -0.015352 
C       -1.175183   -2.320193    1.383907 
C       -0.570308   -1.594055   -2.102183 
C       -0.448025   -2.570798   -0.996364 
C        0.604639   -0.925806   -2.550415 
C       -0.471530    1.297739   -2.333315 
C        0.681561    0.517563   -2.599915 
C       -1.282727    2.690570   -0.366781 
C       -0.305673    2.479655   -1.487085 
C       -0.723512    2.028546    1.938621 
C       -0.484979    2.878228    0.859438 
C       -0.102923   -0.087969    2.772072 
C        0.389621    1.268037    2.514730 
C        0.150576   -2.335737    1.805706 
C        0.718579   -1.171951    2.522891 
C        0.857349   -2.898769   -0.508130 
C        1.120610   -2.820402    0.889197 
C        1.913522   -1.421423   -2.154893 
C        2.046853   -2.374662   -1.179508 
C        2.029586    0.929832   -2.123322 
C        2.771996   -0.232885   -1.814405 
C        0.951145    2.850743   -1.037798 
C        0.872825    3.116512    0.448517 
C        2.145786    2.043387   -1.264836 
C        1.699767    1.458419    2.068515 
C        1.932500    2.464460    1.056184 
C        2.798635    1.851626   -0.005719 
C        2.096132   -0.974656    2.041715 
C        2.394053   -2.050998    1.104762 
C        2.983724   -1.817015   -0.118601 
C        3.346291   -0.460417   -0.515151 
C        2.553231    0.301917    1.747571 
C        3.227106    0.570444    0.445301 
