46
0 1
C        3.011249   -2.331717    0.007915 
C        3.724055   -1.157777    0.005660 
C        3.333056   -0.340435    1.200339 
C        2.104318   -2.326898    1.206256 
C        2.284804   -1.030909    1.893914 
C        0.832400   -2.635331    0.758578 
C        2.107264   -2.333176   -1.192581 
C        0.834318   -2.640189   -0.746277 
C        3.335792   -0.346407   -1.193927 
C        2.288924   -1.041076   -1.886733 
C        3.137349    0.995676    0.750663 
C        3.139001    0.991622   -0.751870 
C        2.173911    1.763014    1.419698 
C        1.119054   -0.317666    2.333281 
C        1.167467    1.098514    2.232633 
C       -0.344745   -2.140317    1.422614 
C       -0.202109   -0.972846    2.261299 
C       -1.553453   -2.418799    0.743473 
C       -0.340831   -2.148441   -1.415671 
C       -1.552313   -2.423674   -0.736523 
C        1.124229   -0.330377   -2.331591 
C       -0.196801   -0.985919   -2.257823 
C        2.176357    1.755524   -1.426631 
C        1.171659    1.086508   -2.236721 
C        1.526337    2.833105    0.683237 
C        1.527615    2.830167   -0.696874 
C       -0.085411    1.879106    2.102796 
C        0.087353    2.897420    1.137612 
C       -1.386604   -0.194190    2.433557 
C       -1.323082    1.246253    2.157416 
C       -2.792889   -1.798238    1.161128 
C       -2.654063   -0.634850    1.966777 
C       -2.788715   -1.805970   -1.160390 
C       -3.618623   -1.506092    0.002544 
C       -1.381967   -0.206827   -2.433742 
C       -2.649378   -0.648695   -1.967039 
C       -0.081688    1.867204   -2.110247 
C        0.090075    2.890385   -1.152075 
C       -0.785740    2.974397   -0.006489 
C       -1.320202    1.232442   -2.161557 
C       -2.391920    1.595995    1.219074 
C       -3.299745    0.491285    1.207430 
C       -3.833377   -0.048683   -0.001740 
C       -3.298765    0.485522   -1.209385 
C       -2.023794    2.263486   -0.005177 
C       -2.390372    1.587871   -1.226833 
