46
0 1
C        4.101565   -0.540747   -0.000084 
C        3.941275    0.826364   -0.000532 
C        3.136583    1.239863   -1.194459 
C        3.370833   -1.084085   -1.203453 
C        2.722139    0.054520   -1.891318 
C        2.568761   -2.117586   -0.763710 
C        3.370958   -1.083279    1.203686 
C        2.568851   -2.117100    0.764716 
C        3.136755    1.240668    1.193231 
C        2.722395    0.055742    1.890920 
C        2.167958    2.185505   -0.749903 
C        2.168080    2.185993    0.748197 
C        0.934100    2.204043   -1.393139 
C        1.361830   -0.060439   -2.327525 
C        0.567026    1.122958   -2.282236 
C        1.193521   -2.239615   -1.167563 
C        0.624812   -1.315219   -2.093836 
C        1.193677   -2.238826    1.168836 
C        0.404624   -2.605329    0.000803 
C        1.362157   -0.058912    2.327379 
C        0.625055   -1.313818    2.094539 
C        0.934309    2.204981    1.391651 
C        0.567375    1.124489    2.281470 
C       -0.288422    2.631344   -0.693064 
C       -0.288302    2.631852    0.691481 
C       -0.893478    1.091637   -2.350507 
C       -1.437902    2.080818   -1.408373 
C       -0.788301   -1.328791   -2.160136 
C       -1.560365   -0.119175   -2.503952 
C       -0.997832   -2.516025    0.000846 
C       -1.609627   -2.100516   -1.231509 
C       -0.788063   -1.327352    2.160986 
C       -1.609488   -2.099681    1.232985 
C       -0.893152    1.093224    2.349966 
C       -1.437680    2.081785    1.407321 
C       -1.560020   -0.117499    2.504252 
C       -2.637174    1.850988   -0.739720 
C       -2.637080    1.851512    0.738968 
C       -2.889782   -0.268668   -1.987808 
C       -2.930770   -1.544208   -1.216443 
C       -3.479323    0.727402   -1.169143 
C       -2.930643   -1.543425    1.217677 
C       -2.889519   -0.267219    1.988350 
C       -3.479131    0.728266    1.169280 
C       -3.641317   -1.305242    0.000669 
C       -4.077267    0.098801    0.000203 
