46
0 1
C        3.074591   -0.350497   -1.581368 
C        2.835215   -1.571813   -0.977799 
C        3.008643   -1.425384    0.512249 
C        3.437536    0.636618   -0.493798 
C        3.309001   -0.047349    0.792995 
C        2.744872    1.803133   -0.734004 
C        2.056898    0.265479   -2.422821 
C        1.896163    1.636439   -1.968041 
C        0.895655   -0.450952   -2.702167 
C        1.608547   -2.300619   -1.211083 
C        0.701294   -1.795182   -2.143108 
C        1.950310   -2.124073    1.143487 
C        1.107599   -2.756960    0.098458 
C        1.316653   -1.520642    2.254427 
C        2.579678    0.593700    1.818322 
C        1.711642   -0.207456    2.618803 
C        1.908923    2.421477    0.279876 
C        1.865730    1.871814    1.550406 
C        0.643786    2.203537   -1.751523 
C        0.653224    2.821204   -0.384860 
C       -0.409997    0.218472   -2.711455 
C       -0.552863    1.544065   -2.234496 
C       -0.731183   -1.996242   -1.950917 
C       -1.433189   -0.794096   -2.428221 
C       -0.245571   -2.906752    0.294656 
C       -1.184254   -2.664511   -0.812577 
C       -0.148457   -1.608890    2.405450 
C       -0.879072   -2.387310    1.532792 
C        0.469936    0.568548    2.923118 
C        0.568131    1.823641    2.266868 
C       -0.665336   -0.271495    2.785142 
C       -0.507887    2.914564    0.328973 
C       -0.597399    2.330882    1.686193 
C       -1.808513    1.898577   -1.616826 
C       -1.771087    2.625015   -0.329354 
C       -2.661438   -0.424617   -1.883491 
C       -2.856347    0.970084   -1.537201 
C       -2.449318   -2.252818   -0.244810 
C       -2.220749   -1.970353    1.217964 
C       -3.187929   -1.219546   -0.778781 
C       -1.884134    0.251352    2.239533 
C       -1.852375    1.606600    1.782848 
C       -2.634879    1.993063    0.595552 
C       -3.418873    1.014045   -0.120206 
C       -2.731591   -0.703062    1.535496 
C       -3.511587   -0.261693    0.355296 
