46
0 1
C       -2.878114   -1.423405   -1.538791 
C       -3.022678   -1.463282   -0.143039 
C       -1.966913   -2.311345    0.433377 
C       -1.633683   -2.125495   -1.892476 
C       -1.182703   -2.797381   -0.667893 
C       -0.766250   -1.218997   -2.507672 
C       -2.705930   -0.003905   -1.935287 
C       -1.439921    0.133846   -2.535036 
C       -3.239764   -0.100879    0.361831 
C       -3.063027    0.817643   -0.793572 
C       -2.697194    0.221301    1.591466 
C       -1.340446   -1.924138    1.675887 
C       -1.700019   -0.673308    2.244989 
C        0.010894   -2.383591    1.881284 
C        0.205128   -2.997394   -0.516478 
C        0.723138   -3.018398    0.781645 
C        0.668132   -1.319654   -2.320320 
C        1.161704   -2.280865   -1.412369 
C        1.440684   -0.133541   -2.534619 
C       -0.667432    1.319932   -2.320362 
C        0.767007    1.219297   -2.507295 
C       -2.370570    2.016196   -0.624323 
C       -1.161277    2.281035   -1.412444 
C       -2.260642    1.586769    1.797564 
C       -2.116143    2.459115    0.732363 
C       -0.681724    0.192315    2.836149 
C       -0.962099    1.552326    2.544699 
C        0.961335   -1.552630    2.544802 
C        0.680871   -0.192656    2.836331 
C        2.115923   -2.459200    0.732702 
C        2.370758   -2.016120   -0.623853 
C        2.260101   -1.586983    1.798052 
C        2.706509    0.004135   -1.934480 
C        3.063262   -0.817547   -0.792752 
C        1.634249    2.125720   -1.891737 
C        2.878572    1.423587   -1.537765 
C       -0.204972    2.997457   -0.516181 
C       -0.723371    3.018306    0.781789 
C       -0.011459    2.383365    1.881567 
C        1.182904    2.797457   -0.667205 
C        1.699343    0.673039    2.245580 
C        2.696716   -0.221492    1.592250 
C        3.239656    0.100836    0.362817 
C        3.022721    1.463300   -0.141958 
C        1.339943    1.923936    1.676521 
C        1.966783    2.311294    0.434245 
