46
0 1
C       -3.821236   -1.202202    0.097945 
C       -3.170012   -1.291121   -1.241203 
C       -3.101620   -0.036726   -1.807798 
C       -3.993408    0.261630    0.395057 
C       -3.654812    0.978721   -0.801237 
C       -3.267920    0.543157    1.565690 
C       -2.939687   -1.755840    1.037226 
C       -2.629177   -0.747001    2.051996 
C       -1.914214   -2.024088   -1.057887 
C       -1.777224   -2.330185    0.335641 
C       -0.745633   -1.659562   -1.804451 
C       -1.828228    0.489548   -2.319780 
C       -0.644093   -0.329545   -2.401045 
C       -2.732655    2.019758   -0.743794 
C       -1.697048    1.797717   -1.810821 
C       -2.227790    1.545247    1.599825 
C       -1.989487    2.331906    0.462380 
C       -1.324072   -0.499769    2.408917 
C       -1.053670    0.967722    2.273412 
C       -0.483260   -2.330878    0.944060 
C       -0.234119   -1.415378    2.065374 
C        0.440694   -2.263302   -1.334653 
C        0.597686   -2.594073    0.085112 
C        1.697060   -1.797706   -1.810817 
C        0.644097    0.329551   -2.401033 
C        1.828235   -0.489548   -2.319766 
C       -0.440688    2.263302   -1.334657 
C       -0.597685    2.594080    0.085114 
C        0.745635    1.659543   -1.804449 
C        0.234111    1.415382    2.065372 
C        0.483252    2.330880    0.944061 
C        1.053659   -0.967715    2.273411 
C        1.324063    0.499776    2.408929 
C        1.989490   -2.331902    0.462386 
C        2.732657   -2.019749   -0.743785 
C        2.227790   -1.545243    1.599830 
C        3.101621    0.036734   -1.807784 
C        3.654812   -0.978712   -0.801228 
C        1.914215    2.024069   -1.057875 
C        1.777224    2.330168    0.335636 
C        3.170012    1.291109   -1.241199 
C        2.629176    0.747004    2.051993 
C        3.267917   -0.543154    1.565684 
C        3.993407   -0.261631    0.395055 
C        2.939687    1.755833    1.037220 
C        3.821234    1.202192    0.097940 
