46
0 1
C        3.612317   -0.898536   -0.867166 
C        3.679779   -0.322819    0.517367 
C        3.537530    1.064459    0.394117 
C        3.071566    0.182107   -1.750230 
C        3.093985    1.364791   -1.055177 
C        1.785746   -0.310440   -2.285294 
C        2.683258   -1.932273   -0.855886 
C        1.598346   -1.631633   -1.812028 
C        2.752981   -1.058853    1.353768 
C        2.264204   -2.192199    0.532431 
C        1.814088   -0.368141    2.195602 
C        2.634896    1.745837    1.230667 
C        1.755364    1.060247    2.117219 
C        1.905178    2.214036   -0.972368 
C        1.776858    2.618965    0.363852 
C        0.648273    0.587621   -2.418593 
C        0.700702    1.894516   -1.740453 
C       -0.592267   -0.025482   -2.592512 
C        0.283743   -2.174101   -1.581405 
C       -0.791234   -1.459271   -2.223213 
C        1.015202   -2.714357    0.735734 
C        0.017235   -2.834322   -0.371136 
C        0.562218   -1.024922    2.482173 
C        0.285546   -2.266941    1.892576 
C       -0.739531   -0.305807    2.606496 
C        0.432549    1.742801    2.055744 
C        0.491899    2.695422    0.995092 
C       -0.812318    1.077740    2.350883 
C       -0.502811    2.443563   -1.281345 
C       -0.621149    2.892623    0.141674 
C       -1.857655    0.665019   -2.320403 
C       -1.812174    1.888850   -1.640911 
C       -2.107399   -1.633281   -1.799797 
C       -2.832546   -0.327362   -1.915040 
C       -1.319833   -2.749499    0.235170 
C       -1.162601   -2.365892    1.598444 
C       -1.796932   -1.202851    2.133125 
C       -2.404277   -2.191531   -0.484725 
C       -3.615525   -0.164610   -0.767582 
C       -2.933871   -0.700800    1.454161 
C       -3.286534   -1.291262    0.183353 
C       -2.015419    1.592078    1.724329 
C       -1.873366    2.554229    0.629416 
C       -2.713859    2.078598   -0.515966 
C       -3.079013    0.725287    1.369538 
C       -3.533153    1.058395   -0.041700 
