100

 C     -2.0179026103     2.7934731857     -2.953710266
C     -2.8597932169     3.0446172357     -1.857686309
C     -3.9596005556     2.1625542608     -1.7295953
C     -4.6475642965     2.0036852365     -0.4849762925
C     -4.1826989008     2.6907136295     0.623769017
C     -0.6837887788     3.3113244984     -2.9947137541
C     -0.0566671841     3.8549790081     -1.8496143714
C     -0.8562599475     3.9915428612     -0.6296324609
C     -2.2808018535     3.6909235183     -0.6837445927
C     -2.9901288087     3.5139408431     0.5267227501
C     1.2756853864     4.0264049745     0.7073170965
C     -0.1822167455     4.0156402167     0.6470837961
C     -0.9159500005     3.6293674377     1.8433575863
C     -2.2930300802     3.4090852453     1.757220583
C     1.8854265168     3.6802721075     1.9356143644
C     2.0732791831     3.921219361     -0.5074108365
C     1.4027109193     3.7929900837     -1.7851570235
C     3.4040266951     3.4260155989     -0.3993025565
C     -5.0645235879     -0.0016925508     0.852526559
C     -4.5933587274     0.7092749522     2.0258613048
C     -5.0748950474     0.621488861     -0.3769578623
C     -4.16107396     2.0287813702     1.9104270548
C     -2.9873806942     2.441168761     2.6042108616
C     -3.8399025526     -0.2195122345     2.8099136333
C     -2.6737353462     0.1550504805     3.4940470015
C     -2.2588980683     1.5563251553     3.416210264
C     1.1333231114     3.1475372295     3.0461211363
C     -0.2528509074     3.036232798     2.9927840323
C     -0.8976340003     1.9381683545     3.7198076743
C     -0.0850141841     0.9657608219     4.3122730087
C     -3.4449935537     -3.2265055391     0.0293734434
C     -4.2434792537     -2.0972433712     -0.2144461455
C     -4.6412156767     -1.3738871809     0.9428990371
C     -3.9241623578     -1.5215208838     2.1779349838
C     -0.4380625834     -0.4401963311     4.2414822586
C     -1.6706046394     -0.8780477711     3.751884791
C     -1.7258046117     -2.1832938654     3.125910331
C     -2.9063854527     -2.4878182168     2.3300056333
C     -2.8235158417     -3.4451781718     1.296913478
C     -4.1062346334     -1.4061588337     -1.4998152433
C     -4.5796394154     -0.0806843731     -1.550875516
C     -2.5865367403     -3.7754395753     -0.9755827115
C     -2.3595551812     -3.0796669331     -2.1923837166
C     -3.0588633203     -1.8242953963     -2.4413517528
C     -1.1103220196     -3.3190210081     -2.8276660237
C     -1.5226961701     -4.4793613384     -0.3177088459
C     0.8784499983     -4.673350837     -0.0669899803
C     -0.2530593005     -4.6313696432     -0.9246129695
C     -0.0757723167     -4.0906327414     -2.2178050629
C     0.7592456474     -1.183132834     4.0511693427
C     0.7693508701     -2.3805701978     3.3316412215
C     -0.5060164668     -2.9328910708     2.9040395097
C     -0.4893890308     -3.9766871868     1.8822249183
C     -1.6305278319     -4.2023407693     1.0861845706
C     0.7578849317     -4.3628988852     1.3149495479
C     -0.4824886437     -2.3012591805     -3.6078134958
C     -1.0970326918     -1.0774218162     -3.8485363044
C     -2.4480197095     -0.8497380067     -3.3147458897
C     -2.9241306867     0.5131480555     -3.2813069192
C     -3.9605236277     0.88336844     -2.4007024524
C     -2.0687104306     1.5630846432     -3.6839409088
C     1.2477029113     -0.1103597072     -4.0889264469
C     -0.2126933055     0.0253040679     -4.2225158346
C     -0.7613332809     1.3141710712     -4.2086527174
C     2.0186205424     1.0625645099     -3.9653488765
C     1.3901291511     2.3529144151     -3.811535763
C     0.0381985978     2.4729337076     -3.9118971479
C     2.1895095998     -4.2305277283     -0.5229906921
C     2.3371017939     -3.5367447891     -1.7526722419
C     1.2017155146     -3.5260494202     -2.6128270351
C     0.9577152272     -2.4392943257     -3.4666479184
C     3.0459507672     -1.3161911336     -2.7814461044
C     1.8324830869     -1.3241932391     -3.5688572858
C     2.0981662791     3.1199846547     -2.8314066428
C     3.321069771     2.4124377744     -2.5996392414
C     4.6837778134     -0.8906323284     -0.4604318092
C     4.5469049256     0.1714974196     -1.366920292
C     4.6640061367     1.4754667526     -0.8058821738
C     3.9822097772     2.5942333347     -1.4196275996
C     2.8997880324     -3.7978822875     0.6272315934
C     3.8815264503     -2.8307744927     0.5123679913
C     4.1253967184     -2.1934186566     -0.7450499846
C     3.2896031185     -2.4291147408     -1.8594660189
C     3.7391679933     -0.0520460785     -2.5713844153
C     3.2335815079     1.0900761013     -3.2210024287
C     3.1413355139     -1.7575797904     2.6149671202
C     2.0378405498     -2.7372985462     2.6876496827
C     2.0059004413     -3.7729925106     1.7483177405
C     4.0528326791     -1.8654088169     1.5518244944
C     3.168142898     2.0063918031     2.9897937064
C     1.9459262994     2.1571420655     3.7026751404
C     1.3376730608     1.0507012427     4.2710828413
C     3.7155717398     0.7287977075     2.724011547
C     3.0200173968     -0.4518899987     3.2598899669
C     1.8814421724     -0.2525870061     4.0513180858
C     4.6384545463     1.6828557062     0.601426809
C     3.9139344934     2.9167761752     0.838012581
C     3.1829883664     3.0589652145     1.9858623192
C     4.6612580386     -0.6874866177     0.9518475131
C     4.517771657     0.5917960084     1.5120243108


