100

 C     -4.9161842562     1.0068199954     -0.8783167275
C     -4.2686342243     2.22024924     -1.2538925277
C     -0.6706205159     4.2259315993     -1.6957077429
C     -1.9863632886     3.7371551354     -1.8703448913
C     -2.2402190006     2.5925109667     -2.6606492531
C     -3.4757979812     1.9537289414     -2.4297079241
C     0.4473860064     3.6086040166     -2.2824642602
C     0.2332228246     2.3751911994     -3.0582596748
C     2.8298731973     3.0805417543     -2.02619616
C     1.7366426259     3.8910828264     -1.6656976605
C     1.7921899002     4.4930204914     -0.3706846724
C     -4.6112348574     0.0129007747     -1.8737222922
C     -4.5407337899     -1.3654581544     -1.5490601983
C     -4.7838922042     -1.7649165446     -0.2015241013
C     -3.6575660394     -2.1652824678     -2.3043824045
C     -3.6695125038     0.5952774674     -2.7876516637
C     -2.6148642966     -0.155655932     -3.3791036686
C     -2.7365069389     -1.557523857     -3.2438138815
C     -0.3339860272     -1.8444928617     -3.6736684572
C     -1.5942906623     -2.3828912503     -3.3391542381
C     0.7485923619     -2.6758682368     -3.3620952521
C     2.3347128968     -0.8011297802     -3.4360779555
C     -1.1036356669     1.8489624992     -3.2249655198
C     -1.2924829363     0.459531036     -3.5826173123
C     2.061495738     -2.1722478926     -3.2997924693
C     2.654004311     1.948991258     -2.8707191472
C     1.37098004     1.5180425804     -3.3186315238
C     1.1999916168     0.1169466525     -3.6371400725
C     -0.1362342774     -0.4043521213     -3.7674392485
C     -2.9852197471     -3.2856186417     -1.7237883309
C     -3.0925672286     -3.603416469     -0.3486080681
C     -4.0962825659     -2.8707587031     0.3692580253
C     -3.902216612     -2.542582157     1.7636918389
C     -2.8042003995     -3.0059298772     2.4122960993
C     -1.7320979749     -3.4498714704     -2.3938480488
C     0.6202657006     -3.746817853     -2.38329357
C     -0.6053395118     -4.0188393243     -1.7547085394
C     -0.6287420309     -4.3134843032     -0.334953002
C     -1.906393929     -4.1114521469     0.3603883282
C     -1.8564847174     -3.8755445377     1.7505269505
C     -3.7372338945     1.0478186559     2.5926607205
C     -3.588519577     -0.3189640962     2.8498226104
C     -4.365118737     -1.2038816296     2.0274244207
C     -0.7503018549     -2.6438312083     3.3943545445
C     -2.0639752954     -2.1428525772     3.3271142843
C     -2.3392896734     -0.7708820703     3.4499261349
C     0.3310010093     -1.8077841286     3.6977374441
C     0.1310477806     -0.3670937059     3.7773579234
C     -1.2059742041     0.1508581937     3.6419539906
C     -1.3791002939     1.5484945214     3.3097013594
C     -2.6627816062     1.9730639583     2.8575840245
C     2.6092987837     -0.1184400193     3.3865775951
C     1.2859742403     0.4966959998     3.584050431
C     1.0950074983     1.8822568484     3.212772538
C     3.6628023221     0.6282573623     2.7877715923
C     2.7330854568     -1.5213798478     3.2650620996
C     1.5921315832     -2.3475151961     3.3685190832
C     1.8566444275     -3.8896847702     -1.7062554439
C     1.906906533     -4.1118523248     -0.3138673771
C     0.6295600273     -4.3089954578     0.3834364019
C     0.6056958906     -4.0004563789     1.8002295347
C     -0.6203312819     -3.7241477358     2.4261204226
C     1.7315786687     -3.4235178815     2.4337400766
C     -4.970248813     -0.7453592984     0.8305477645
C     -4.4976990816     1.5393994627     1.4807563939
C     -5.0151797617     0.6458581319     0.5045206275
C     -3.9203153823     2.7990721685     1.0984356577
C     -3.808222527     3.141762978     -0.2722545372
C     -2.7135678642     3.9609583776     -0.6399477711
C     -2.8403729051     3.0959959329     2.0019955425
C     -1.7483791352     3.9046250237     1.6335430351
C     -1.8048368439     4.4937325654     0.3326834213
C     0.5877165019     4.8044166126     0.3167770039
C     -0.6008347418     4.8001960955     -0.35781419
C     -0.2426550519     2.4047801383     3.0409162968
C     -0.4586959644     3.6301838254     2.2530475706
C     3.4670124405     1.9828320479     2.4165080883
C     2.2304558605     2.6219613208     2.6411727115
C     1.9748559857     3.7583994776     1.8396652374
C     0.6583692808     4.2434252114     1.6602454457
C     4.9088482326     1.0229307513     0.8744712738
C     4.2594423644     2.2389969377     1.238117689
C     3.6550798378     -2.136928412     2.3316412918
C     4.7808053541     -1.7555166703     0.224940985
C     4.5370280313     -1.343213629     1.5684905527
C     4.6054159167     0.0383732807     1.879596328
C     2.803032666     -3.0251667974     -2.376543382
C     3.900334714     -2.5537932635     -1.7325333218
C     4.0948943497     -2.8679599281     -0.3349437329
C     3.0922970231     -3.5950660916     0.3900948546
C     2.9844536118     -3.2639420214     1.7620880436
C     3.7298719711     1.0280368488     -2.596734958
C     3.5832468224     -0.3414324358     -2.8404547844
C     4.3611887056     -1.217041868     -2.0094081377
C     2.7017257606     3.9712150644     0.6071224871
C     3.7976317433     3.150121225     0.2474835271
C     3.9102595926     2.794155906     -1.1197810626
C     5.0084084702     0.6485558526     -0.5047527846
C     4.4895747695     1.5316757814     -1.4897184301
C     4.9656072277     -0.745860966     -0.8170999305


