100

 C     0.070290871     4.7531668229     -0.1314381632
C     1.1260434968     4.2938158428     -0.9410001308
C     2.4322013523     4.0326909049     -0.3166448762
C     3.4224805529     3.21897939     -1.0090245665
C     4.3989823102     2.5043519747     -0.2656272206
C     3.0607906696     2.6695886956     -2.2762111928
C     -1.2985166382     4.554747506     -0.4758582499
C     -1.6936752534     3.8188377798     -1.6153719074
C     -0.6388867276     3.2782624671     -2.4485899578
C     0.7388691899     3.5913128562     -2.1520556218
C     1.7394961176     2.8117754097     -2.7830974958
C     -2.2252107445     1.5899431666     -3.2896607961
C     -0.9266191965     2.0841647938     -3.2486836126
C     -3.2964841089     2.1550741111     -2.4898451939
C     -3.0270121852     3.209352422     -1.6001514096
C     -3.8124563007     3.2054091112     -0.4072938233
C     3.5714710367     1.4007508386     -2.720004025
C     4.4855591158     0.6499934511     -1.9414292082
C     4.898627839     1.2211381973     -0.7017081165
C     4.4313253164     -0.7673652355     -2.0500091993
C     2.5329630821     0.7387975608     -3.4692778178
C     2.338981717     -0.6612357338     -3.4098422379
C     3.3814912851     -1.406122673     -2.8013553893
C     1.8195866792     -3.2572067802     -2.3010459636
C     3.1152577634     -2.674427051     -2.2247241638
C     1.5261441961     -4.2288811392     -1.3241864068
C     0.1177528295     1.1513453626     -3.6313726095
C     1.4235470391     1.6154297389     -3.5220202476
C     -0.6427484384     -2.9546590192     -2.6614184376
C     -2.5007695634     0.2035019218     -3.5225266795
C     -1.4654245123     -0.768621081     -3.5688247312
C     -0.1147126573     -0.2934113166     -3.684887934
C     0.978884341     -1.2019637389     -3.4666215524
C     0.7139704746     -2.5389466593     -2.93405566
C     4.7383566964     -1.616533113     -0.9391102225
C     4.9570512263     -1.0483722931     0.3511983912
C     5.077540296     0.3741470038     0.4462993147
C     4.4151030023     -1.7079198565     1.4912529763
C     3.9544603589     -2.8133652403     -1.0716300962
C     2.3150746082     -4.2913322043     -0.0910352384
C     3.4850620026     -3.5188002161     0.073841977
C     3.7029299326     -2.9529780017     1.3600686753
C     3.7687897537     -0.9616014908     2.5226352363
C     3.776577279     0.4443675407     2.5598816945
C     4.5975925024     1.0870102196     1.5939121513
C     4.2873575083     2.4210837863     1.1631481756
C     3.3232532544     3.133004316     1.8257486892
C     2.6315981513     -1.7005350181     2.988669387
C     1.4154298625     -1.0710903511     3.3607908196
C     1.3815553509     0.3833361831     3.4347058403
C     2.6062145439     1.1187157295     3.1137216173
C     2.5005744917     2.4911621511     2.845641759
C     -1.0799186678     -1.1635020048     3.3750162301
C     -1.1343216632     0.2899891976     3.442165862
C     0.1064121581     1.0608092891     3.4604168126
C     0.0447716186     2.4904839342     3.1794046423
C     1.2499607894     3.1595342161     2.8869460789
C     -3.5377058975     0.1929396885     2.8401204113
C     -2.3888514732     0.9726424513     3.1644212768
C     -0.9370736434     -3.8358709989     2.3471799436
C     0.2573461328     -3.2107904127     2.7604938549
C     0.1942373806     -1.8453400348     3.2858684849
C     -2.1840362793     -3.19890421     2.461168209
C     -2.2847903647     -1.8997922876     3.0205819536
C     -3.4704980347     -1.2045091458     2.720740471
C     2.6626989088     -2.9816106313     2.3433161042
C     1.4219983339     -4.5309923427     0.9888729383
C     1.4888289085     -3.7242149813     2.167194589
C     0.16047443     4.6566386319     1.3118961869
C     2.4912118094     4.0483528846     1.1032069132
C     1.3052982865     4.2132784866     1.8913573055
C     -1.1916456227     3.1201814535     2.7258451927
C     -1.0995034778     4.2276657356     1.8348810901
C     -2.4151327044     2.3646760671     2.7368514362
C     -2.0370615103     4.3940066319     0.769883146
C     -3.2212091106     3.7168397303     0.8178892053
C     -3.4722899654     2.8016069239     1.8812722294
C     -4.9440356125     -0.4837836386     1.0646775231
C     -4.534648751     0.6378347901     1.889134145
C     -4.4580082816     1.8899692755     1.3683124992
C     -4.7198726605     -1.4698771415     -1.1391701325
C     -5.0624350853     -0.3356887881     -0.3582607627
C     -3.0188146614     -3.6000870214     1.3346656307
C     -4.2321562517     -2.6741751077     -0.5481570288
C     -4.0535807406     -2.7696635517     0.8603778131
C     -4.374095021     -1.6359145851     1.6438740525
C     0.1494603635     -4.8500541597     0.4149374246
C     -3.2326009459     -3.2450054208     -1.4278420199
C     -2.184765501     -4.0474409555     -0.957497983
C     -2.2056945711     -4.3574113185     0.4459041687
C     -0.9882940566     -4.6446867921     1.1333719939
C     -3.7550607648     -0.069053978     -2.9005949425
C     -4.0231656161     -1.3203805505     -2.4069642008
C     -3.0344365021     -2.3517090271     -2.5273341951
C     -1.7370960358     -2.0969006062     -3.0621047154
C     -0.9094889768     -4.0008782752     -1.6687285977
C     0.1926056484     -4.5746437842     -1.0140638416
C     -4.6511600708     2.113768787     -0.0629980184
C     -4.8523213171     1.0070551759     -0.9338557117
C     -4.2261767002     1.1164393576     -2.2011602176


