100

 C     4.666789463     0.9362240556     -0.1341685359
C     4.5178714618     -0.3078097735     0.4909304426
C     4.4218755195     -1.5058196644     -0.3626160885
C     4.5273865797     1.0849146505     -1.5601546449
C     4.2804895827     -0.0161123952     -2.3365170948
C     4.3384713368     -1.3228791076     -1.7591153583
C     3.8476505816     2.3173920582     -1.8336171035
C     3.2184321078     0.0166390594     -3.3132665466
C     2.4090006699     1.1415771239     -3.4707302833
C     2.7844463895     2.3781234436     -2.7577392541
C     0.5151154904     3.2307872792     -3.1232870974
C     1.7780382961     3.4114743048     -2.5378810501
C     1.8233899918     4.2302867504     -1.3798941544
C     3.8419989422     -2.7328183455     0.1750611967
C     3.430576024     -2.7276446008     1.5230799102
C     3.4824140154     -2.1610971843     -2.5710821158
C     2.9472697144     -3.3135935918     -2.0605292075
C     3.175171903     -3.6526100426     -0.6759989053
C     2.6899744449     -1.3179233989     -3.4228254274
C     1.3097208867     -1.5725570658     -3.6377831497
C     1.0290984556     0.8999362267     -3.8812402234
C     0.1691136499     2.0108184391     -3.8105351083
C     1.1352590304     -4.5012375665     -1.3520031952
C     2.0251935546     -4.3925284594     -0.230156433
C     1.4955511381     -4.225188544     1.0816466176
C     2.297568408     -3.4755212232     1.9633012669
C     -0.2154217874     -4.6084288783     -1.1454901056
C     0.4468240998     -0.4420715591     -3.8913191021
C     0.7601511918     -2.8320568922     -3.1568423163
C     1.6243386274     -3.7105273027     -2.4423828152
C     -1.1227158595     -3.937064559     -2.0159365039
C     -0.9990127031     -0.6155121158     -3.7731011531
C     -0.67360449     -2.9544529167     -2.945776148
C     -0.7606194945     -4.5801643184     0.1954994394
C     0.0363143316     -4.258779701     1.3046349116
C     -0.5736965914     -3.480832954     2.389494035
C     0.3161406993     -2.7994909473     3.3137373538
C     1.7130211951     -2.7850511983     3.0789402869
C     -0.1707634512     -1.7300483112     4.0959663732
C     -2.1038129531     -4.1183785016     0.0859442136
C     -3.8568301385     -2.6427458135     0.7556688825
C     -2.7198871111     -3.3991566235     1.1282692164
C     -1.9412544679     -3.0268850885     2.2871370741
C     -2.3969030834     -1.850859201     3.0427858491
C     -1.5195632502     -1.2614506306     3.9458322921
C     -3.2780125108     -2.8005944717     -1.6464983059
C     -2.3440708962     -3.7688608273     -1.2866787351
C     -4.187222161     -2.4184970615     -0.6133122785
C     -1.2371973007     1.8483207863     -3.7567857391
C     -1.8299723088     0.567796792     -3.766142879
C     -1.5606661918     -1.854452609     -3.2638964387
C     -3.1489066034     0.5230032167     -3.262732918
C     -3.7045130951     -0.6937251477     -2.7765484077
C     -2.9241614432     -1.8639307633     -2.7112372678
C     0.6559729982     -0.6198701199     4.4693573224
C     1.9715954876     -0.4795130892     3.9612539928
C     2.5075734499     -1.632485915     3.3558591924
C     3.516334844     -1.5414656431     2.3444822815
C     3.4459290995     0.9248153115     2.4598252852
C     3.9617724971     -0.3033377399     1.8453624894
C     -0.2033034586     0.5215138216     4.5951536895
C     0.2806662141     1.7738307726     4.2918298883
C     1.6338533969     1.9394962036     3.8045950381
C     2.4733726917     0.8250837762     3.5413691201
C     3.5538894843     2.1761647583     1.7324581969
C     4.1988559913     2.1611190216     0.4704115957
C     -4.2985309709     -1.4925673699     1.5219668493
C     -3.5038049025     -1.0114019432     2.5750651163
C     -2.3729133801     1.0393147365     3.5330188304
C     -1.5373463123     0.1598810195     4.2373284233
C     1.641564151     3.0985376126     2.9810795888
C     2.6036958116     3.2612730772     1.9679483327
C     2.2351462972     4.1372346156     0.9146746805
C     2.8202364426     4.0033358028     -0.3795942248
C     3.8024745516     3.0502750409     -0.5850070893
C     0.2806194105     3.5600913179     2.824184238
C     -3.5431473187     2.5290181411     1.4358693647
C     -2.3592834187     3.0336303868     1.9816425853
C     -1.5000035885     3.8441902592     1.1336811412
C     -0.1589430554     4.1423616977     1.6206495385
C     0.8614872604     4.5243019229     0.7173375154
C     -5.0153691677     -0.6220786868     0.644242348
C     -4.9244706762     0.7580023649     0.820346177
C     -4.1468614426     1.2779633038     1.8911089336
C     -3.4586065525     0.4390128468     2.7870845565
C     -1.8533659598     2.3611982905     3.1729919258
C     -0.5646887746     2.7052153693     3.61049713
C     -4.6670550489     1.0803010944     -1.5924480739
C     -4.7058950885     -0.3572911102     -1.7755823143
C     -4.9136965041     -1.1808421729     -0.6887509833
C     -4.7572866409     1.6280038579     -0.3238084618
C     -1.7661161237     2.9134890069     -2.9570903118
C     -2.9324365286     2.7594921342     -2.1907435599
C     -3.7109995553     1.62151999     -2.5146109967
C     0.6076493277     4.5779787021     -0.6832950519
C     -1.7737658935     3.9405093221     -0.2818943798
C     -0.6720010806     4.2584439851     -1.1951828041
C     -0.6813923815     3.7269805463     -2.5123269313
C     -3.8771311165     2.7170696753     0.064896767
C     -2.9550343567     3.2991391748     -0.8281342223


