100

 C     3.3332537661     -3.3030457176     0.2897416816
C     4.0818849856     -2.1967088121     0.7236430704
C     4.6699694331     -1.4164469154     -0.3042911752
C     5.0866221182     -0.0608195415     -0.0657274002
C     4.857958854     0.5106557187     1.1731816577
C     2.329866411     -3.8982659599     1.1118905859
C     0.636574553     -3.6144110409     2.7991557615
C     1.9412292365     -3.303142278     2.351067596
C     2.5715443622     -2.0454395786     2.7563620362
C     3.7229780951     -1.5686349946     1.9992986502
C     4.1355835188     -0.2394625688     2.1856514557
C     4.4666003233     2.0369914238     -1.1808865537
C     4.304749938     2.6583820192     0.117780283
C     4.8446006887     0.7087773631     -1.2695858607
C     4.4509431137     1.8954914433     1.2684162131
C     1.094493309     4.3620286349     0.8057080716
C     3.2222763103     3.5949637209     0.0333653892
C     2.3349398274     3.7889732092     1.1253797821
C     3.4743518566     1.9994929827     2.3319463543
C     -0.1111758712     0.9178321368     4.2403764462
C     1.1358674664     1.3329061195     3.7417040849
C     1.1957374397     2.5956182438     3.0397115288
C     2.4027846136     2.9132870221     2.2870764656
C     -0.050750456     3.2942847651     2.7337156983
C     -0.0557257429     4.1771624106     1.6310719382
C     -0.0776542452     -2.7108026827     3.6378260724
C     0.4919377913     -1.4849317403     4.0266764776
C     1.8189717886     -1.1159606697     3.5692724395
C     2.1469698784     0.3003357094     3.5475797494
C     3.3246805546     0.6903816487     2.9103329932
C     -0.4270603254     -0.4688643218     4.3925878396
C     3.137325898     0.2930324143     -3.0264556692
C     2.7376077814     1.6999874563     -2.9349396024
C     4.1908711278     -0.1528466086     -2.2085334403
C     3.428231081     2.5330339907     -2.0350761096
C     2.7105069117     3.5531744472     -1.3094848816
C     0.6423310791     4.4634332215     -0.5470607304
C     1.3654204578     3.8805880107     -1.6037004946
C     0.661300692     3.1698438766     -2.6620709323
C     1.3913256056     2.1074563014     -3.3325090922
C     0.6563735447     1.176066459     -4.0638747977
C     4.1557569851     -1.4820416596     -1.6444121806
C     1.0513151793     -0.2264062262     -4.1449078216
C     2.1886668204     -0.7106340305     -3.504123708
C     2.1477012223     -2.0668528755     -2.9821069242
C     3.1713683931     -2.4279458422     -2.0169802071
C     -0.11796401     -1.0103345709     -4.3027018822
C     -0.2475725038     -2.2777155218     -3.6944226207
C     0.916523535     -2.8317930985     -3.0298664899
C     0.7091599929     -3.911416627     -2.0551672434
C     -0.6274147316     -4.2667638171     -1.6822626864
C     -1.2322402436     -0.0928365848     -4.4279077411
C     -2.4826834415     -0.4644835498     -4.0180048052
C     -2.6853130091     -1.7674306979     -3.4418486766
C     -1.603567921     -2.6738767416     -3.2935589237
C     -1.7565567235     -3.6214874072     -2.2684861672
C     -3.3293569559     0.4979248549     -3.3639086346
C     -3.5142149863     2.4687355921     -2.0318783562
C     -2.877947137     1.8203148571     -3.1089458009
C     -0.7868675848     4.4564402324     -0.5442453176
C     -1.5052653704     3.8798047349     -1.6124549916
C     -0.7853585744     3.1938923156     -2.6924523139
C     -1.5097255548     2.2059163132     -3.4688796425
C     -0.7531606949     1.251739714     -4.1850544823
C     -2.838948451     3.5074140985     -1.2987750452
C     2.9207759639     -3.4430230843     -1.0732790318
C     1.701968669     -4.1903803748     -1.0963984093
C     -0.9663740345     -4.6273974488     -0.342164294
C     0.0294404507     -4.70179571     0.6608723122
C     1.3767024425     -4.5472311527     0.2591219727
C     -0.3207741322     -4.2905818635     1.9664680266
C     -2.7667966384     -3.4838503751     -1.2562874547
C     -2.2677815146     -4.0719121931     -0.0550887641
C     -3.670034784     -1.607505079     -2.4156165295
C     -3.6468119565     -2.3846658264     -1.2270624998
C     -4.554213077     -0.432169242     0.0357638529
C     -4.0251430918     -1.7890436405     0.053554579
C     -3.4684357971     -2.3416564087     1.2721929815
C     -2.5788349916     -3.5079883571     1.1969870206
C     -1.6148237044     -3.7247953394     2.2368670519
C     -4.5784164955     0.2816737441     1.247574685
C     -4.0139393394     -0.2530109937     2.4400955372
C     -3.4180853156     -1.5246526272     2.4772556998
C     -4.293241849     2.4486574459     0.1345840831
C     -4.3821435255     1.7730194768     -1.1326341482
C     -4.5406380945     0.363397931     -1.1988433986
C     -4.0862854518     -0.2284736592     -2.3925509893
C     -4.411444749     1.7280588584     1.2925267994
C     -1.2288354985     4.3642829961     0.8138325024
C     -2.4669496409     3.789355997     1.1443022511
C     -3.3275310619     3.5101929777     0.0485271075
C     -2.3881892057     0.6849695512     4.0196594157
C     -1.321785342     1.6480800102     4.0002483895
C     -1.3445884008     2.7711864184     3.1574645315
C     -3.4846296293     0.8636957049     3.2139674525
C     -3.6080596075     2.0629625883     2.4491322383
C     -2.5618431696     3.0179257484     2.3748922022
C     -1.4779063607     -2.8139251897     3.315958559
C     -2.3592636137     -1.7294913487     3.4772641735
C     -1.8429994594     -0.626800315     4.2008711745


