100

 C     1.8340595601     3.7360864493     2.0857857186
C     2.6719863668     3.7541472262     0.9654603209
C     3.8248244049     2.9209163626     1.047727257
C     4.5216344691     2.4865587328     -0.1349375873
C     3.9718433253     2.7843293371     -1.3702155616
C     0.4601433195     4.1670908128     2.0134125091
C     -0.1771416775     4.4437478997     0.7812380044
C     0.6218148997     4.2707672772     -0.4344616453
C     2.0584811086     4.0300384936     -0.3326201827
C     2.7272963905     3.5244836158     -1.4616305749
C     -1.4754190526     3.8747303274     -1.6579018026
C     -0.0580758654     3.881815903     -1.6410681688
C     -2.2598492105     4.1198928721     -0.5169803264
C     -1.6324243477     4.3143093142     0.7459791239
C     -2.3285858894     3.8012608084     1.8727765054
C     5.1398990866     0.2299145465     -0.9080472022
C     4.5528216203     0.5424457683     -2.2031809842
C     5.0670922646     1.1677459909     0.1140180403
C     3.9639530682     1.7737352826     -2.4087596627
C     2.6975627155     1.8377626161     -3.083626271
C     -0.2068893407     -0.462161661     -3.7948424364
C     -1.588939544     -0.3559797762     -3.8765272432
C     0.571428116     0.7833744561     -3.6676594294
C     2.0005505943     0.6814304302     -3.4999844359
C     2.6331231718     -0.6182101514     -3.3110193232
C     3.9163633819     -0.6447310983     -2.7104393135
C     0.6046862     3.0596360639     -2.6361343061
C     1.9873412868     2.9677623967     -2.5621086854
C     -2.2184645567     3.0204574689     -2.5585689212
C     -1.5561672432     2.0549288351     -3.3409491926
C     -0.1070681637     2.00953609     -3.352834259
C     -2.2780022876     0.8878025083     -3.6823648235
C     3.5148537012     -2.8333614338     -1.7379522127
C     4.8955291295     -1.144830531     -0.6219529545
C     4.2903291171     -1.7167119451     -1.8167397891
C     1.7962329128     -1.8160080716     -3.2147489041
C     0.376319746     -1.7479321993     -3.4154747577
C     2.3057471314     -2.9302533186     -2.5089805928
C     3.3237436785     -3.500164553     -0.4755433856
C     3.746928675     -2.8526859824     0.7248901538
C     4.4718317928     -1.5872141147     0.6579908462
C     4.2543020201     -0.5747392271     1.695041389
C     4.6169911806     0.7515353424     1.4105620444
C     2.9697705373     -3.122093704     1.8661128303
C     2.0852508571     -4.1936982405     -0.5528646575
C     1.3073374886     -4.4613285835     0.5882671248
C     1.8404506697     -3.9874517139     1.8254302767
C     -0.3972912597     -3.7786846342     2.7468300684
C     0.9412176238     -3.5527426815     2.8618285204
C     -2.1251536184     -4.1205663789     -0.9345125713
C     -0.7454257498     -4.3496469184     -0.8840284456
C     -0.1333365879     -4.6151735906     0.4224304742
C     -0.9396946673     -4.4295518885     1.5714539195
C     -2.4609089281     -1.4216840962     -3.4528344805
C     -1.9190996842     -2.6075341597     -2.9029522788
C     -0.4841707966     -2.7924412626     -2.8840838601
C     0.0623282606     -3.7799329289     -1.9644555759
C     1.4461427207     -3.8245462101     -1.8133581815
C     -2.7196266866     -3.2788822979     -1.946005456
C     2.7026491497     -2.0775990861     2.848581832
C     3.2249205938     -0.7928421993     2.7242678978
C     2.4337648444     0.2988631287     3.2693615311
C     2.8393607685     1.6432553621     2.9245281814
C     3.8883461255     1.8571711921     1.9978248565
C     1.9198468268     2.6932793005     3.0590671102
C     0.6011630265     2.4737866779     3.590945743
C     0.1258907343     1.1731033897     3.8290926641
C     1.4172961182     -2.3152059641     3.4178878684
C     -1.3392044985     -2.7807991902     3.1969395671
C     -0.9126096705     -1.5030382573     3.6222124603
C     0.5357812211     -1.2622135685     3.7433271477
C     1.0736627678     0.0700759939     3.7269047831
C     -2.1457596997     2.0202931744     3.3650448431
C     -0.2435808755     3.5087063404     3.0727894865
C     -1.8419731489     -0.4124138225     3.4684389393
C     -1.3235500625     0.9367813562     3.6997449108
C     -1.599299052     3.2957595108     2.979490932
C     -2.5463793282     -2.9633958816     2.4588632126
C     -3.4137781101     -1.8984049623     2.1856253135
C     -3.1039844431     -0.6100063374     2.7830973926
C     -4.6955883394     0.4481695203     1.1753501014
C     -3.8493371325     0.550738625     2.30367985
C     -3.3622436692     1.8433287485     2.6141685438
C     -3.9353826162     -2.9783166028     0.0025901066
C     -2.9115349731     -3.9552760757     0.2523794148
C     -2.3015611229     -4.0158083336     1.4830956731
C     -4.8221676985     -0.7947996948     0.4634662516
C     -4.2281317538     -1.9817244913     0.962282321
C     -3.6682323964     -0.8385650853     -2.9807316963
C     -4.9361655343     -0.5161008116     -0.9245805278
C     -4.3566240064     -1.407067048     -1.8777091886
C     -3.9000478202     -2.6597371844     -1.4034246338
C     -3.4910454107     2.7499427565     -1.9622212577
C     -4.8632465574     0.9200761406     -1.0845870241
C     -4.1484738878     1.4983022709     -2.1687727215
C     -3.5451744602     0.6004295462     -3.1072363003
C     -3.4775618647     2.9259368976     1.6975078929
C     -4.7876100122     1.5131053644     0.2202765778
C     -4.1027613731     2.7440454523     0.4313145788
C     -3.5025400938     3.3896639724     -0.6767793196


