100

 C     -3.5111299033     -0.5599916049     2.9221935441
C     -3.2165061065     -1.9032462658     2.6244203984
C     -3.9351538074     -2.4724994108     1.532260889
C     -3.3486401231     -3.5308961168     0.7604865006
C     -2.2407409601     -4.1658788982     1.2223968929
C     -0.8414747312     -1.5115081504     3.4162226527
C     -1.8941876799     -2.4112333435     2.9744293932
C     -1.5276399096     -3.6476633169     2.3781195789
C     0.8548850069     -3.2193940896     2.7303510498
C     -0.1877580896     -4.0269744203     2.2272249785
C     2.1378887559     -3.4710153789     2.187016715
C     -2.1115858003     3.6747010866     1.9987748384
C     -1.8391736297     2.6393944532     2.9278117244
C     -2.8381739777     1.654724622     3.0773261824
C     -2.4982116198     0.3107346022     3.4523536621
C     0.5492596258     -1.9123883077     3.2917780311
C     -0.1242868095     0.9241492554     3.5855453122
C     -1.1648014543     -0.0983532874     3.6098971226
C     -0.1442282282     -4.2741797081     -1.7982481292
C     -1.3617561286     -4.3227836122     -1.1013282505
C     -1.2849126814     -4.6952221138     0.2854727776
C     -0.0411227937     -4.7485349271     0.9531135496
C     2.3000849111     -4.1921383618     0.9207884548
C     1.1781012261     -4.7129049392     0.2408492802
C     1.1145046072     -4.5307778355     -1.170071762
C     -2.463511775     -3.4682874304     -1.5607404868
C     -3.5170187164     -3.2390119764     -0.656961316
C     0.0737570463     -3.2880994645     -2.8308169756
C     -0.9165001752     -2.3548873362     -3.1925596468
C     -2.2517141971     -2.4806693173     -2.6215702161
C     -3.1709550656     -1.3771777051     -2.7485067755
C     -2.7238898768     -0.2266772259     -3.465293297
C     1.4558004707     -2.9682361806     -2.8621184789
C     1.9364949434     -1.6904593885     -3.2423448845
C     0.9692870475     -0.7250375935     -3.6953210841
C     -0.4338961522     -1.0978602093     -3.7297376457
C     -1.3817575237     -0.0776972933     -3.8791473147
C     2.6192853297     1.037961308     -3.3223163788
C     1.3201339912     0.6893513491     -3.6768980929
C     4.7554188341     -1.3572286604     -0.8001287412
C     3.8947417544     -2.0545440088     -1.6775245295
C     3.2389035821     -1.2881281717     -2.7390777526
C     3.5783500663     0.0701465644     -2.8801827474
C     2.1181250734     -3.7518848802     -1.8429598183
C     3.3828572287     -3.6094925522     0.2181553796
C     3.2610638021     -3.2754539391     -1.1748881352
C     -4.2475130838     -1.1710302441     -1.7840157702
C     -4.3592447719     -2.0921441935     -0.7288925487
C     -3.2136755635     1.0947699386     -3.1542046996
C     -4.1921143244     1.290874538     -2.2181636808
C     -4.7342843807     0.153036556     -1.5173597284
C     -2.680268028     4.001285641     -0.2154313129
C     -4.116696525     2.4271148587     -1.333841456
C     -3.021102453     3.3477855025     -1.4092407389
C     -2.1253578495     2.0499009109     -3.2912050649
C     -0.6066670312     3.6203721389     -2.201455887
C     -1.9589780733     3.1387133006     -2.4147731537
C     0.9674430761     4.5936923114     -0.5352458432
C     -0.3469819152     4.4237688148     -1.0060636318
C     -1.3559322789     4.5211376762     -0.0172990273
C     0.2955624518     1.7267868934     -3.5662709743
C     -1.0162349312     1.3292031165     -3.7899297735
C     2.901439991     2.2999762052     -2.6683500268
C     1.8732439717     3.2308962629     -2.3764635678
C     0.5140020515     2.9577890432     -2.8299522175
C     2.0956143253     4.056410832     -1.2534839158
C     -5.0427884827     0.5958051345     -0.2051715801
C     -4.9251749411     -0.2858102438     0.9093122426
C     -4.6642411714     -1.6481680612     0.6245960268
C     -4.3994265875     0.2233881365     2.1308240657
C     -4.6492062703     1.9958461776     -0.0863108516
C     -3.1823697007     3.5521021392     1.0548622291
C     -4.1244909915     2.494566782     1.1415397099
C     -3.9926180949     1.6052374157     2.2408698783
C     2.629536579     4.0790979478     0.9842139449
C     1.2829640332     4.5676860747     0.8612092395
C     0.2884853606     4.2297052507     1.809723685
C     -1.0331830469     4.3732042596     1.3629606116
C     2.9552121107     3.2691740831     2.0505729679
C     4.0220694935     2.1129499553     -1.8069965252
C     4.0916107464     2.7573904763     -0.5401992545
C     3.1614701523     3.8030706478     -0.3315042547
C     5.0038757746     0.6526281365     0.4165271421
C     5.002615801     0.0468055608     -0.9153185064
C     4.463414017     0.7463558074     -1.9711718338
C     3.9196660409     2.2182130492     1.8781151919
C     4.5418127689     1.9771852734     0.6193281299
C     4.0109392417     -2.6829629652     1.1200190479
C     3.5168104821     1.1358227942     2.7221154606
C     3.8635966432     -0.1913797111     2.4593636708
C     4.7503195763     -0.3872293678     1.3534141148
C     4.7197375055     -1.6318823441     0.6271386083
C     0.5774093612     3.2119688112     2.8241206901
C     -0.4595462761     2.2963772164     3.2530093925
C     1.9097331527     2.7964119004     2.9423216926
C     2.2403021698     1.4630643578     3.3143769827
C     1.2517487455     0.4861009665     3.5464767444
C     1.6058991162     -0.9193937109     3.3575403429
C     2.9342222089     -1.2435385192     2.8660820101
C     3.1598544372     -2.5220293529     2.2925255537


