100

 C     3.647287585     1.6752423817     2.4782227402
C     3.9368925293     0.3046130461     2.4689797092
C     4.7954466167     -0.1381759992     1.4156888891
C     4.7404048312     -1.5038215109     0.9682937493
C     3.9582861727     -2.3903803649     1.6487180632
C     3.0954017873     -1.9600088421     2.7375478565
C     2.9582856644     -0.6020986759     3.0658438083
C     2.4576573531     2.1590663678     3.0971017799
C     1.4101264803     1.293784431     3.5328540634
C     1.1363171017     -4.5059701228     1.2409287233
C     3.2855892637     -3.4569239412     0.9395094714
C     2.2045487987     -3.8627461548     1.7806078492
C     0.7001230603     -2.4387367521     3.1762938612
C     1.998773583     -2.8550928229     2.8076509881
C     -0.1581052464     -4.3382421815     1.8279998299
C     -3.2453037387     -0.8363905889     3.0244737731
C     -1.9745434901     -1.407888532     3.291889971
C     -1.759136459     -2.7706725757     2.8232966667
C     -0.4151021637     -3.2822740705     2.7469751156
C     -0.1451657821     3.1497110172     3.0886534724
C     0.0585327666     1.8151925257     3.5471123583
C     1.6428176341     -0.1349042845     3.5021434273
C     -2.3881852848     1.4621692231     3.1952567677
C     -1.0823065721     0.9200232636     3.5619817751
C     -0.8608579382     -0.5123372721     3.5745873828
C     0.5069930571     -1.0384792745     3.5288424643
C     -3.4368157193     0.5658877062     2.9534962927
C     1.0022098023     -4.6057843483     -0.1953930386
C     1.9103335975     -3.9579780336     -1.0467678569
C     3.1618668056     -3.4401460892     -0.4666171212
C     3.9486726193     -2.4388227618     -1.1882411783
C     4.7955543173     -1.5444355382     -0.4701882896
C     3.4536561927     -1.9870687023     -2.434484972
C     -0.3984512647     -4.6765043942     -0.4778949615
C     -0.9736564412     -4.0351587613     -1.5928599719
C     -0.0743368708     -3.32043822     -2.4900326085
C     1.349365097     -3.3563047487     -2.2450177397
C     2.1626090371     -2.4082985247     -2.9179102698
C     -2.0002773024     -1.9990802291     -3.2792002468
C     -0.621987421     -2.2410290674     -3.3185702638
C     -2.3818863437     -4.2216443449     0.9046431464
C     -1.0942623775     -4.6684954259     0.8001947818
C     -3.1028222717     -3.8138310229     -0.2797888999
C     -2.3926487493     -3.6761313431     -1.5032835872
C     -2.8863746052     -2.6871836578     -2.3742702413
C     -2.7510653386     -3.3794304092     1.9997496995
C     3.6889950135     -0.652099313     -2.8957444066
C     4.4131243199     0.2883777149     -2.1160372372
C     4.9857336342     -0.1889820868     -0.8954444163
C     4.0197958409     1.6532599995     -2.1811423065
C     2.5215927991     -0.2385214567     -3.6293183255
C     0.6213141017     1.3221095148     -3.7062212542
C     2.0389840441     1.0828593889     -3.5809709558
C     2.8513233179     2.0464298891     -2.9088039844
C     -1.2960390648     2.7335829267     -3.1209215427
C     0.0933092381     2.5668232586     -3.1786599997
C     0.224488945     -1.1513734971     -3.7933380833
C     1.6080604341     -1.3351685781     -3.6683061532
C     -2.5420147245     -0.700534436     -3.5415502735
C     -1.6957112475     0.4012232664     -3.8266278027
C     -0.276869213     0.1980146961     -3.9382189342
C     -2.2007054604     1.6676102712     -3.4813132849
C     4.143255478     2.528169942     -1.0383537676
C     4.605048948     2.0228488489     0.2119754871
C     5.0487196075     0.6705692339     0.2687082222
C     4.0231531775     2.5572970582     1.3854240525
C     3.0681779768     3.4633015293     -1.0879730449
C     2.464829045     3.9931810528     0.0796107783
C     3.0311577343     3.5829984666     1.3169462532
C     0.8994676732     3.8868953299     2.4319807965
C     2.172977905     3.4126252057     2.4646432295
C     0.891673606     3.4158995901     -2.2936553142
C     2.2725741423     3.1726210114     -2.2515782276
C     -1.9264342136     3.5743230206     -2.1661052602
C     -1.1785159089     4.1715852     -1.1153828994
C     0.2627519064     4.1414954851     -1.1918939472
C     1.0514241332     4.3869562304     0.0149276853
C     0.3624825251     4.5085342671     1.2420085017
C     -3.2427237364     3.0228566961     -1.9461687585
C     -3.8508482484     3.0919972512     -0.712576007
C     -3.1488240419     3.7281452259     0.3676041895
C     -1.8532350759     4.2923380272     0.1737450596
C     -1.0500216368     4.3625885606     1.3218393609
C     -3.7191645802     -0.5504314691     -2.7475801422
C     -4.1238882259     0.6973780284     -2.2368323218
C     -3.4032482493     1.8251902861     -2.732315973
C     -4.093319115     -2.8638560872     0.1228195711
C     -4.8630608126     -0.4894058678     -0.1159496414
C     -4.4824780774     -1.7783214364     -0.7104188542
C     -3.9232595036     -1.783236856     -2.008184622
C     -4.6247200314     1.9699170539     -0.1998462141
C     -4.7284448425     0.7464800434     -0.896699903
C     -4.4409208855     2.0025136961     1.2229650027
C     -4.4580264023     0.8360571513     1.9470345078
C     -4.7837757363     -0.3913290681     1.2953285831
C     -4.1747831578     -1.4360088767     2.0915834367
C     -3.8996217173     -2.6510490801     1.5438532684
C     -1.3630200836     3.5675290259     2.4920569457
C     -3.4879900568     3.023647798     1.5667434808
C     -2.5111818713     2.7767864933     2.5682382165


