100

 C     3.6683366466     2.3800716218     1.2545987694
C     4.4406145207     1.1768034201     1.3417108213
C     1.5041513984     4.2090474989     0.9535875644
C     2.1936155023     3.8140383519     -0.1974707638
C     3.3376683012     2.8955275864     -0.0536778346
C     3.8195820297     2.1766472769     -1.2256580613
C     3.1598085476     2.4186499938     -2.4512236339
C     0.0244949076     4.2709210477     -1.4725525051
C     1.4661898732     3.9532714454     -1.4569268462
C     2.0138345065     3.2961052175     -2.5668617923
C     -0.7434841573     3.8174227956     -2.5593922047
C     -0.173036665     2.978113053     -3.56676449
C     1.1743084188     2.7569174883     -3.5949430117
C     0.0926084715     4.5828827535     0.9330776862
C     -2.1239240106     4.2194594211     -0.0923952446
C     -0.6916803277     4.5295032599     -0.2272045574
C     -3.93638623     2.7475054155     -0.9989145474
C     -2.8352352967     3.6246158429     -1.2197218701
C     -2.1235650934     3.4106297778     -2.4085014396
C     -2.6267582746     3.925040052     1.2020371979
C     4.5381979748     0.9057539797     -1.0952188794
C     4.840444147     0.4448325373     0.212682278
C     2.9875684201     1.3674804409     -3.4115378207
C     3.5388816425     0.1256288257     -3.2004121477
C     4.4028146961     -0.0923468623     -2.0997311716
C     1.6708041552     1.4629121751     -3.9757718923
C     4.292402942     -1.5000075207     -1.7578072515
C     4.5084116697     -1.9553579459     -0.436617616
C     4.8262623665     -0.9837206016     0.5467609883
C     3.7955431111     -3.1055298185     -0.0177836568
C     3.2630895206     -2.076921131     -2.5636302576
C     1.0297451913     -3.1492453328     -2.5064499878
C     2.4322366373     -3.1212414641     -2.0898224724
C     2.8216101454     -3.7258305671     -0.8695867017
C     -1.2455480647     -3.9181313064     -2.0178235186
C     0.1304898921     -4.0367172304     -1.7829699329
C     -1.0793552325     1.8984373941     -3.8398941044
C     -0.6293452191     0.5703192478     -3.9566600223
C     0.8110967122     0.3393696082     -4.0539093282
C     1.3707706442     -0.9737137012     -3.7217270471
C     2.7401015891     -1.0567625448     -3.424457071
C     -1.5213857224     -0.5032667214     -3.5393898947
C     -0.9437285574     -1.8213065178     -3.3161034397
C     0.4935866401     -2.0529949676     -3.2823181236
C     -1.7740111361     -2.8078036019     -2.7574742274
C     3.308406151     -3.213265193     1.3303424903
C     3.4694332256     -2.1754428668     2.2597922339
C     4.3724184733     -1.1255359672     1.8841148082
C     4.2057617852     0.2044197361     2.4037466545
C     3.2559935092     0.4393830401     3.3540053048
C     2.107339226     -3.9953474696     1.3144740336
C     -0.1998284569     -4.2880091955     1.8381929906
C     1.032504825     -3.7475208927     2.210257208
C     1.0735424064     -2.5768078347     3.0684081391
C     2.3387029779     -1.870817476     3.1637112349
C     2.3098289672     -0.5995857052     3.7429887208
C     0.5371945529     -4.6071568429     -0.4980778503
C     1.8419603924     -4.3556702992     -0.0343187024
C     -0.4317031249     -4.8060106175     0.5124510235
C     1.7919308014     3.6276088413     2.2322650795
C     2.8283365269     2.6932676009     2.3953166494
C     2.6060079132     1.7130594022     3.4109660085
C     1.3071830362     1.4848363043     3.934575216
C     0.2358104895     2.3520287386     3.6898457027
C     0.5615113607     3.5236568725     2.9575875791
C     -1.7545606676     3.8178069755     2.3223916649
C     -0.444577985     4.2119146773     2.2055855387
C     -1.4362598327     -3.7255452172     2.3161496378
C     -1.4483226862     -2.4823210085     2.9895829683
C     -0.1737163667     -1.9132829417     3.4066279267
C     -0.1645559241     -0.5309257861     3.838795598
C     1.0908416862     0.0551444304     4.0718545698
C     -2.5473014337     -0.1896369672     3.1226625334
C     -1.3278078588     0.351640002     3.6541391525
C     -1.1122705245     1.7935428631     3.6426155336
C     -2.1047393573     2.6208897687     3.084853639
C     -2.4688122598     -4.1029443303     1.3948894715
C     -3.570406689     -3.2863368116     1.2432032838
C     -3.6826690043     -2.0891929519     2.0210865192
C     -2.6263914964     -1.6264858128     2.8425167071
C     -3.5377173477     0.7013507806     2.5285512133
C     -3.2880054784     2.0880824905     2.5292956398
C     -3.3801922376     -3.4427539231     -1.197559409
C     -2.2376576372     -4.3086612825     -1.0394959824
C     -1.8322075447     -4.6869989614     0.2354378389
C     -4.0822738479     -3.0075137591     -0.0842114934
C     -2.3111997684     2.2174922658     -3.1837171099
C     -3.2057172716     1.2025137076     -2.7986345793
C     -2.8316790323     -0.1907877696     -3.0106585931
C     -4.4948325678     -0.8205473071     -1.2014980089
C     -3.592079343     -1.2050775926     -2.2914733079
C     -3.0909498325     -2.5107165238     -2.2719326483
C     -4.6291570365     -1.6834736218     -0.0798616412
C     -4.7031515473     0.5433750737     -0.9345595066
C     -4.1187095878     1.5632521564     -1.7741084975
C     -3.6699293618     2.9408567407     1.4066445103
C     -4.4792044087     -1.1585930279     1.2463298264
C     -4.4411942133     0.2115128604     1.4958445626
C     -4.7807448879     1.0476316822     0.3921510627
C     -4.34931892     2.4164592523     0.3427469174


