100

 C     -4.9052843936     0.9589897819     -0.6339104573
C     -2.2438630654     4.143482691     -0.0015282504
C     -3.3226619902     3.3062082971     -0.3272477542
C     -3.9894080087     2.7177118623     0.7760567499
C     -4.8106333502     1.5505916835     0.6112906887
C     -1.6549246021     4.1304900264     1.3018386934
C     -2.0659071375     3.2056110605     2.2809280426
C     -3.323730074     2.5994621755     2.0455092024
C     -1.0795328811     2.5300598323     3.1059354503
C     -1.451323642     1.2356772449     3.6432081715
C     -0.4277872161     0.4139429747     4.1141974826
C     -0.281986183     4.5049780024     1.175342863
C     2.0274403499     3.9459049674     1.5119944654
C     0.6953068409     3.9267285342     2.0136009335
C     0.3209671656     2.8956177331     2.9797866573
C     1.3546213804     1.9829608576     3.4416821693
C     0.938101128     0.787293069     4.0498972292
C     -4.9215105113     -1.2725694957     0.3959657565
C     -4.7275034877     -0.6533682518     1.6913446658
C     -4.9495579645     -0.4840034505     -0.7465480998
C     -4.6704585003     0.7233952657     1.7973680151
C     -3.6816206036     1.3318004836     2.6331556488
C     -3.7893656474     -1.4551222075     2.4226311108
C     -2.7681838419     -0.8856539415     3.2088465262
C     -2.7117833385     0.5746989048     3.3212471051
C     -2.5215096061     -3.8931247848     -0.6316622846
C     -3.5362585009     -2.9438329564     -0.8140428112
C     -4.1757054933     -2.4963314898     0.3739013523
C     -3.5195275503     -2.6369231967     1.6427299614
C     -0.4966551211     -1.0309418222     4.0313432587
C     -1.5686270257     -1.6901661664     3.4439373986
C     -1.2984860994     -2.9315631856     2.7084427872
C     -2.3165069656     -3.3703331577     1.7803639544
C     -1.9502393491     -4.1513019118     0.6679108441
C     -3.4535320554     -2.0671574601     -1.9772492988
C     -4.1800111002     -0.8609327534     -1.9111499345
C     -1.5140191973     -4.1021892452     -1.6129235252
C     -1.3487647278     -3.2249251624     -2.7160079077
C     -2.3037519175     -2.1303596889     -2.867214721
C     -1.8938364397     -0.9218056882     -3.5600057607
C     -0.6031680918     -0.8891607586     -4.1327340794
C     -0.3806828563     -4.6948550659     -0.9357263449
C     0.8830411115     -4.5447000433     -1.438078859
C     1.0959284225     -3.7783218488     -2.6329392017
C     0.0022076406     -3.110150367     -3.2541569908
C     0.3380482942     -1.9506865027     -3.9661018814
C     1.9906401644     -4.3715096086     -0.5370532843
C     2.7766412944     -3.5405035381     1.5575105229
C     1.7731648319     -4.2384801846     0.8622939753
C     0.8346843     -1.535926985     3.9630052983
C     1.1312896139     -2.7089488905     3.2305156972
C     0.0548123576     -3.4078169985     2.5465608415
C     0.403993732     -4.2489174824     1.393965991
C     -0.6131769931     -4.6036550712     0.4928787349
C     2.4693175221     -2.8091682653     2.768537788
C     -2.5133048919     0.3671262199     -3.2739829285
C     -3.6913984731     0.347157327     -2.5209370677
C     -4.103711305     1.4682361222     -1.7336902454
C     0.113891832     0.3309238953     -4.2897613194
C     -0.4317706798     1.573573415     -3.9023575735
C     -1.7728547796     1.619577396     -3.342923901
C     -2.1379875589     2.7294042628     -2.4930461113
C     -3.2986118678     2.6125054123     -1.6176896821
C     -1.1345072963     3.7556757527     -2.1891310296
C     -1.2121201569     4.4397357983     -0.9410356129
C     0.5031904422     2.5830834588     -3.6092318925
C     0.1545368617     3.6777525265     -2.7718447729
C     1.6450702684     -1.3600473077     -3.8889142766
C     1.5133521068     0.0392259115     -4.1163608671
C     1.3434898239     4.0934792102     -2.0750127239
C     1.2597197521     4.5948623834     -0.7546618171
C     -0.0259208975     4.7928083461     -0.2058450061
C     2.3088264845     4.2694704967     0.1427531932
C     2.4026001182     3.1988294359     -2.4470999276
C     3.4254292403     2.8074326758     -1.5382840161
C     3.4295711616     3.4691138571     -0.2840762179
C     2.3705726456     -3.1448221452     -2.4862265968
C     2.6488545864     -1.8673287906     -3.035574826
C     4.1994170767     -1.4188018216     -1.1282721035
C     3.5495033346     -0.9425706331     -2.3407823428
C     3.4310233854     0.4793742003     -2.591584482
C     2.392011189     0.9540748259     -3.5105036178
C     1.9000034421     2.2812933164     -3.404332435
C     4.751733225     -0.4607652236     -0.262736361
C     4.6519169846     0.9350092448     -0.5193693567
C     3.9758622885     1.4432708726     -1.6452795249
C     4.2557825759     -1.7949917514     1.7391426832
C     3.8391137428     -2.8699820971     0.8829817015
C     3.8306866681     -2.7129560156     -0.534328647
C     2.9434704978     -3.5527277611     -1.2195173601
C     4.7336890505     -0.6409010706     1.1862296078
C     1.7316486665     -0.4226254914     4.0189224068
C     2.9950516068     -0.4608053322     3.4159848033
C     3.3896205823     -1.7281281527     2.8904778196
C     3.9314879699     2.8077182419     0.8841008845
C     3.0222665028     3.0211968802     1.9770001691
C     2.7170529232     2.0014471732     2.8949085033
C     4.5865496339     1.6108583174     0.7664649569
C     4.4719752589     0.6393157722     1.8036673927
C     3.5224753575     0.7763530249     2.8500659343


