100

 C     -2.3684122214     1.2864413322     3.524404506
C     -3.4813390533     1.3787883356     2.6635992252
C     -3.6029292723     2.6119657362     1.9585261271
C     -1.324751848     2.2691737873     3.5258615893
C     -1.3466002496     3.3906285091     2.6833961137
C     -2.5639453549     3.5801049029     1.9622321102
C     -4.0271689094     0.1487997415     2.1012222199
C     -4.7698169348     0.2681917575     0.8829192017
C     -1.7798219577     0.0267372534     3.8379574296
C     -2.2709409154     -1.1749032165     3.3103408269
C     -3.431356249     -1.1299250482     2.4171162509
C     -3.6624558738     -2.2548678986     1.5211482356
C     -2.8337494882     -3.3877131069     1.655713044
C     0.0811870899     -2.0935929532     3.6107261554
C     -1.3454853485     -2.2992634693     3.3145501433
C     -1.7119853124     -3.4241476068     2.5661963302
C     1.0084836646     -3.0407996018     3.1485652926
C     0.6002680226     -4.1306583078     2.3052213265
C     -0.7240409881     -4.3113464523     2.0117804517
C     -0.135018259     4.6215952959     0.9453902341
C     -0.0744170862     3.8907239568     2.1530616575
C     0.5923274968     -0.7669350804     3.8602765598
C     1.1493847418     2.0425101402     3.3329410383
C     -0.0890928911     1.6118359695     3.8501702529
C     -0.3648824685     0.2426706429     4.0728277543
C     -4.310501944     -2.0552077845     0.2245741951
C     -4.8308071008     -0.7708547588     -0.0643058341
C     -2.4826184157     -4.1947165864     0.51907441
C     -2.9557303148     -3.8737648439     -0.7420647767
C     -3.9166818455     -2.8408446462     -0.8905375578
C     -1.1361605912     -4.6614856319     0.6663113274
C     -2.0326507105     -3.8077716359     -1.8443778583
C     -0.6743419439     -4.0730092113     -1.6879886201
C     -0.2112536525     -4.6187273238     -0.3977296307
C     2.1041926694     -4.0885103766     -1.0373773516
C     1.2046532772     -4.5454819337     -0.0554039215
C     1.6019740453     -4.3432436994     1.2977848757
C     -3.6998646775     -2.2257050215     -2.1923421259
C     -4.0891260368     -0.8833408734     -2.4413554129
C     -4.7649810779     -0.1929462113     -1.4066635805
C     -3.275893594     -0.1182122372     -3.3172532223
C     -2.499800692     -2.7616470938     -2.7285992832
C     1.6187052552     -3.4714812265     -2.263125649
C     0.2622909418     -3.3388796987     -2.549793138
C     -0.1567157454     -2.1809361492     -3.3223080777
C     -1.5795852114     -1.9347354332     -3.4412648888
C     -2.0269001066     -0.6499481667     -3.7908597614
C     -3.1135751381     1.2896859645     -3.1338410104
C     -3.7708452027     1.9865572025     -2.0949532971
C     -4.659154583     1.2168951755     -1.2742633356
C     -4.7832524542     1.512259395     0.1331536383
C     -4.2069207524     2.6389942927     0.6377767074
C     -1.786668523     3.5608434038     -2.0334336692
C     -3.1079578701     3.1617492208     -1.538282387
C     -3.4622278721     3.5413260002     -0.2168884322
C     -1.0053362002     4.3995209222     -1.2177509074
C     -1.3483875683     4.6616971566     0.1561371435
C     -2.5380281611     4.2001566128     0.6454502905
C     -1.7689588241     1.6338545606     -3.5343181826
C     0.3858506464     2.6412704091     -3.0258707509
C     -1.0664778076     2.707826831     -2.9859686211
C     2.4784909785     3.4087299281     -1.9635106971
C     1.113312581     3.6075660691     -2.2325585257
C     0.4188470796     4.412988049     -1.303839384
C     0.2817943978     0.2570358203     -3.7820378349
C     -1.1016440613     0.4341814827     -3.9239018806
C     4.2376116108     -0.2838008128     -2.3153840624
C     3.0407374175     -0.1032859529     -3.0626351118
C     2.4814068385     1.241571733     -3.1446078991
C     1.0674604862     1.423579359     -3.4348277632
C     3.1856000177     2.2932663396     -2.5100791124
C     0.7813531379     -1.1001842432     -3.5792061598
C     2.5705635348     -2.4997302788     -2.6908749679
C     2.1709386039     -1.264903495     -3.2511470526
C     4.1903861575     2.8995166145     -0.4884055063
C     3.0588808121     3.7453246093     -0.6877146478
C     2.217098908     4.1178541455     0.3903330576
C     0.947937896     4.6000342462     0.0219824079
C     4.4207294601     2.3678937219     0.7740705439
C     5.1840447334     0.2525119679     -0.2348865619
C     4.8239728003     0.7787539451     -1.5461976004
C     4.3242472394     2.0528138191     -1.6611836391
C     4.9209235191     1.0147573207     0.8977736114
C     3.6804526332     -2.5851523993     -1.7848633203
C     4.908119385     -1.147722393     -0.2254036317
C     4.4713763219     -1.4960220379     -1.5703979653
C     2.7130286681     -3.5049260163     1.626630845
C     4.2614746412     0.3991854246     2.011505836
C     3.9319081252     -0.963255103     2.0325285043
C     4.3197688251     -1.7928053998     0.8882797647
C     3.6077097742     -3.0427005405     0.6451882922
C     3.3297831108     -3.4556116691     -0.6930950677
C     2.3533310411     3.4584665205     1.6807741734
C     1.1849368956     3.2337470745     2.5034561754
C     3.472596451     2.5993917135     1.8419857711
C     3.3808384677     1.3919819134     2.5969034678
C     2.201855733     1.0404572741     3.2720249035
C     1.9288038661     -0.3710025213     3.4812999847
C     2.8133559392     -1.3586100034     2.8843133666
C     2.3334734206     -2.6689974479     2.754212306


