100

 C     -2.9411449364     3.7339074463     -0.3827466743
C     -3.6183651299     2.7632321842     -1.134179661
C     -4.4727994013     1.9052642443     -0.3819048605
C     -4.8519374437     0.6054613099     -0.8688426641
C     -4.3793929079     0.185375224     -2.0869034331
C     -1.6934689282     4.3003027532     -0.8562136828
C     0.2911798534     4.051968257     -2.144866309
C     -1.0890145059     3.8264661472     -2.0500683704
C     -1.7008857271     2.7180776202     -2.795150124
C     -3.0110476642     2.2676906316     -2.3770613623
C     -3.453430754     1.0134243187     -2.8379796159
C     -3.3416199136     -3.287569455     -1.3350568927
C     -4.1882343779     -2.1668268652     -1.2486756274
C     -4.0403544223     -1.2049153694     -2.2954431645
C     -2.9419888976     -1.2405342274     -3.1943974644
C     1.0411663563     -0.2598278329     -4.1030166217
C     -0.2969170556     -0.6167639539     -3.9657426182
C     -0.5945972602     -1.9610436537     -3.5098054528
C     -1.9690135849     -2.2664768376     -3.1507066088
C     -2.2666345874     -3.3465155937     -2.2843500618
C     1.1208142514     3.2681694848     -3.0135500713
C     0.5760680453     2.1506182352     -3.6992319253
C     -0.8457416151     1.844413768     -3.5669883599
C     -1.2682100005     0.4788622326     -3.8358222363
C     -2.5779414716     0.1292455692     -3.5193321292
C     1.4763152279     1.1113571962     -4.0228574238
C     -4.6059677078     -1.6961315453     0.0810450241
C     -4.9323621937     -0.3228270632     0.2449753988
C     -2.885893273     -3.9875683067     -0.1460576861
C     -3.1982957991     -3.4837219568     1.1042210977
C     -4.0728272516     -2.338947786     1.2232478085
C     -1.5752036593     -4.4935790015     -0.3774336533
C     -0.6002597009     -4.5167861789     0.6507137874
C     0.7358878775     -4.5793504913     0.2133327002
C     2.1059165998     -1.1018477093     -3.6658682788
C     1.8512733815     -2.3296282789     -3.0319067604
C     0.4771769166     -2.800532416     -3.0124679062
C     0.1392566192     -3.873966399     -2.0887544024
C     -1.2005042901     -4.1087717828     -1.7172876005
C     1.1084911228     -4.3101250576     -1.1585283651
C     -3.6270700704     -1.5815074629     2.3553890027
C     -3.7767606923     -0.1841944965     2.4377184693
C     -4.5498049186     0.4078343485     1.4014534204
C     -2.782837678     0.6034827709     3.1576804573
C     -2.7154028643     2.0382912116     2.8917452669
C     -1.5649190129     2.7409234866     3.3016708259
C     -2.4632631442     -2.2335724804     2.9012205702
C     -1.4529707883     -1.5159326581     3.5339816186
C     -1.6514584043     -0.0748530089     3.7465795331
C     0.7659191998     0.0654078206     4.2577267492
C     -0.4981632843     0.6974499577     4.1350486689
C     -0.464582623     2.0786579687     3.8933853368
C     0.196530528     -3.2685707224     2.6941476002
C     -0.1189236212     -2.1219324952     3.5363609457
C     3.7868673556     -2.3536608241     1.8925236752
C     2.6351593181     -2.5802580591     2.7074661156
C     2.3027348947     -1.5274132684     3.569402271
C     0.9416334903     -1.318141041     3.9948019679
C     -0.8740752687     -3.882812492     1.9313965734
C     -2.1912019402     -3.4126562893     2.1320072627
C     1.575300806     -3.4844113431     2.2705185033
C     1.8028894077     -4.1831948342     1.0571551391
C     -3.4642784013     2.6112673478     1.7665358023
C     -4.3366563719     1.792834718     1.0320284196
C     -1.0269840677     3.8655194546     2.5512245815
C     -1.6796786303     4.3183546969     1.4392641818
C     -2.9207184761     3.7123868201     1.0447171176
C     1.0813470588     4.4454730469     -1.01013959
C     -0.9157891927     4.6872356818     0.2715894807
C     0.5069538503     4.6034927476     0.2670424386
C     1.9817010025     0.7378005362     3.8937814316
C     1.9736774203     2.026070983     3.310864722
C     0.7594633504     2.7328344016     3.444920856
C     0.4176927217     3.784076565     2.5711150669
C     2.4806999189     3.3786671265     1.2649065149
C     1.2141744493     4.0810720353     1.4296081305
C     3.8941696915     1.3739111428     1.8702366335
C     2.8812719402     2.3575860297     2.2216507862
C     4.5189500222     1.4760415157     0.6027800254
C     4.0926240951     2.4133500978     -0.359660635
C     3.0913560147     3.3773158284     -0.0598072758
C     2.3786479232     3.891629922     -1.1698793374
C     4.8930665873     -0.9429294355     0.4274878283
C     4.3971510827     -1.0812778266     1.79351641
C     3.9008161988     0.0525558727     2.5068175277
C     2.9333330988     -0.2473738778     3.4854241299
C     4.9682164862     0.2994670626     -0.1273962544
C     2.9190994346     -3.854066409     0.1868716997
C     4.484443158     -2.0837193054     -0.3528073053
C     3.8942328124     -2.9861761898     0.5836574751
C     3.21722197     -0.2582962642     -3.3187511129
C     4.6657538086     0.4710059632     -1.5240000843
C     4.1117772217     -0.6130372974     -2.2847013291
C     3.9536862186     -1.9221536045     -1.6629001225
C     2.8485948686     -2.797353624     -2.0676952396
C     2.4419957897     -3.808300184     -1.1697245624
C     2.4318468808     3.2391314518     -2.4671058135
C     4.2118682116     1.8086617063     -1.6839483329
C     3.3006116236     2.1502651628     -2.7078269409
C     2.8270277484     1.1045611516     -3.5496150456


