100

 C     4.897330283     -0.3268110263     -0.5076535713
C     4.4931189972     0.4291117129     -1.6211190797
C     4.3492560176     1.8411807413     -1.4169513765
C     3.4188279007     2.5938049855     -2.2048401705
C     2.7916211003     1.9928308363     -3.2570832918
C     4.5468058973     -1.7026818979     -0.3863237909
C     3.7003620883     -2.373065911     -1.3207048099
C     3.2365778223     -1.6201099956     -2.4731271979
C     3.6907015968     -0.2465465095     -2.6483995534
C     2.9560521524     0.575329053     -3.5252385091
C     1.351740037     -3.1974853558     -2.6810625867
C     2.0118147321     -2.0452496281     -3.1449534542
C     2.9303373027     -3.8051428364     0.5731702765
C     2.9470514726     -3.517585514     -0.8284649771
C     -0.6703878559     -4.4940436323     1.113283503
C     0.5907662455     -4.6430038701     0.4877638725
C     0.6497242235     -4.5151878711     -0.9210461276
C     1.8030566659     -3.9307472269     -1.5592558366
C     -0.4436542184     1.1510423567     -4.4151100562
C     1.4584578856     2.394930918     -3.6066983587
C     0.9051434039     1.2964286379     -4.3351591033
C     1.2085903013     -1.1314599931     -3.9361779521
C     1.7556062575     0.1372098434     -4.1697848845
C     -1.0280922613     -0.1644772453     -4.3489536406
C     -0.2584453253     -1.2897450555     -4.0249075678
C     -1.3035221041     2.0723132522     -3.7303272654
C     -0.7884643072     3.0109619332     -2.7945913934
C     0.6580086096     3.1848117619     -2.7410565964
C     1.2855547027     3.7231075007     -1.5357053076
C     2.6863912636     3.5076195003     -1.3626120974
C     -0.9806875966     3.9089956577     -0.4765851491
C     0.4776569631     4.036564273     -0.3856604864
C     1.1339317991     4.0807237703     0.927691451
C     0.3364465381     3.9897625805     2.0831313169
C     -2.9963572415     2.8661299438     -1.6041050332
C     -1.6180652098     3.3873586905     -1.6675311712
C     -3.7260651483     2.9691991739     -0.4034475827
C     -3.0756677174     3.4289415404     0.7850489595
C     -1.7513522654     3.9144981426     0.7551600736
C     -1.0820535056     3.8700781438     1.9954325061
C     -2.5308658006     1.3813842203     -3.5067207117
C     -4.3595650992     0.8184699579     -2.0901998451
C     -3.421589888     1.7983500816     -2.5059504363
C     -0.1007554418     -3.3395585143     -2.7504679276
C     -0.9280047256     -2.3656970033     -3.3050137149
C     -2.2918034459     -2.2219772006     -2.7790427087
C     -3.0131513092     -1.0179186889     -3.124383415
C     -2.3579354644     -0.0018094314     -3.8560784446
C     -4.1050657387     -0.5907253778     -2.3433895758
C     2.5384746898     3.6825868525     1.0882241825
C     3.2906580147     3.4208929827     -0.0784481239
C     0.753311224     3.2351544191     3.2314368618
C     2.021528652     2.7028890402     3.2890677056
C     2.9634874117     3.0235896464     2.2747496062
C     -1.5199194477     2.9926337296     3.0340045713
C     3.9243699235     1.93664144     2.2303763778
C     4.6083504433     1.6159296403     1.0352631404
C     4.328592327     2.4105300262     -0.110870416
C     4.9583177079     0.2603179585     0.8248580594
C     3.454196356     0.9072555002     3.1016153608
C     3.6807073575     -0.4489162243     2.8355421052
C     4.5755365174     -0.7440795518     1.7575269702
C     3.5956666226     -2.9406599874     1.4872705138
C     4.4465931864     -1.9729412095     1.0238325343
C     -3.5771415175     2.6691872398     1.8971265629
C     -2.6936307973     2.2493719404     2.926712652
C     -0.3529282755     2.4617482141     3.6845277012
C     2.716051801     -2.6776973834     2.6244835606
C     -1.3953846705     0.2307973121     3.750570103
C     -0.227704644     1.0702566293     3.9354997742
C     1.1195031039     0.488025051     3.9152699049
C     2.2158986561     1.3516736521     3.713269461
C     2.6236370006     -1.4016692661     3.1991174111
C     1.3071101122     -0.9364536704     3.6659333951
C     1.7283662146     -4.2398665894     1.2208452263
C     0.3075351259     -3.1040572512     2.9330196546
C     1.5821185547     -3.5026671524     2.4636040976
C     -3.5330879089     -1.3376609249     2.6971595272
C     -2.3155164389     -1.9650607523     3.0487172
C     -2.0866505976     -3.1957360935     2.3906033587
C     -0.7918102823     -3.7734529043     2.3460874317
C     -4.6056638469     1.8012511092     1.4055180671
C     -4.6992193384     0.5267795312     1.9416166895
C     -3.7319885598     0.0601936449     2.914462287
C     -2.6735035953     0.8607363663     3.3750163144
C     0.1463142403     -1.7677629041     3.5167283454
C     -1.2072320766     -1.184836379     3.5730142605
C     -5.1623042513     -0.4090008131     -0.2846275027
C     -5.0253079097     0.9228929045     -0.8390034676
C     -4.7389931163     2.0097466216     -0.0175332716
C     -5.0084713627     -0.5964836685     1.0748070232
C     -0.5241082696     -4.1528493234     -1.6651447386
C     -1.7828717623     -3.9412561035     -1.0390391167
C     -2.7071989504     -2.9708259286     -1.6171360893
C     -3.7855516911     -2.7183695504     0.6554801882
C     -3.8080454158     -2.4702685819     -0.7871515716
C     -4.535238069     -1.3407912403     -1.215401831
C     -4.3025842419     -1.7515112763     1.5500606835
C     -2.7753319147     -3.5393415436     1.1853491709
C     -1.8593468806     -4.2422246029     0.3486408876


