100

 C     4.7196093506     -1.6887399375     -0.3432796258
C     4.1199915447     -2.9452883188     -0.0789145218
C     4.8765876857     1.1358391364     -0.8874371135
C     4.53778653     0.2557969637     -1.8931378692
C     4.4942538517     -1.1606433513     -1.6456061158
C     4.2876585447     2.4349592734     -0.8622582378
C     3.4821478643     0.6018461468     -2.8060889195
C     2.8123194806     1.8278999759     -2.7409619301
C     3.2773390055     2.8239620425     -1.7687641089
C     1.1619417018     4.0317892186     -2.041823761
C     2.3759332409     3.8969635983     -1.3531212681
C     2.4053089979     4.3588057825     0.0100409314
C     3.4802238597     -1.7015833838     -2.4938835697
C     2.8133826179     -2.8973787944     -2.1933159449
C     3.2664235219     -3.5830531832     -1.02704551
C     2.3393863967     -4.4098264512     -0.2950705783
C     1.1355607271     -4.7235060446     -0.8478816882
C     2.7978533039     -0.6159876096     -3.1585520558
C     1.419228399     -0.6552922664     -3.4242119823
C     0.7091837685     -1.9197908928     -3.2196255406
C     1.4389655129     -3.0482988658     -2.6603155169
C     0.6949722286     -4.1011463243     -2.0923745452
C     -1.4360271177     -0.6519244205     -3.417776818
C     -0.7280529447     -1.9180970718     -3.2163877782
C     -1.4579642933     -3.0448840265     -2.6537867158
C     -0.7139029425     -4.0994848298     -2.0891987158
C     -2.8133455966     -0.6093658282     -3.1459069681
C     -1.4495318139     1.8432609843     -3.2116599172
C     0.7010714117     3.0108147643     -2.9685459154
C     1.4395420874     1.8398531849     -3.2181694042
C     0.714436655     0.6151172618     -3.5043108981
C     -0.7286104607     0.6168190276     -3.5010579848
C     -0.707184918     3.0124758911     -2.9653717593
C     -2.3509148688     -4.4042925733     -0.2844988119
C     -0.0056774473     -4.8870932337     -0.0004970928
C     -1.1503390528     -4.7208148168     -0.8427297893
C     -3.2792925942     -3.5753330249     -1.0122921802
C     -3.4952696161     -1.6933532074     -2.4781624617
C     -2.8299041629     -2.8907212111     -2.1805971599
C     -2.4348540891     -4.0921282446     1.1197962803
C     -1.2536668755     -3.8896098056     1.8777968728
C     -0.0020792954     -4.3803818087     1.329827901
C     1.2531235756     -3.8925681762     1.8721496058
C     2.4303966016     -4.0978685266     1.1088312358
C     3.5879729809     -3.2577498622     1.2399490981
C     1.2423993591     -2.7738220535     2.8206940105
C     2.4346259486     -2.0595378906     3.0144115194
C     3.6199201853     -2.3056622225     2.2307540213
C     -3.5898401535     -3.2492849278     1.2561295378
C     -1.2360202663     -2.7708981196     2.8262796535
C     0.0047500143     -2.1072295665     3.1673733561
C     -3.615066653     -2.2971299508     2.2470635821
C     -2.4256729518     -2.0538066162     3.025366851
C     -4.3035646963     -1.0507618166     2.0433079365
C     -5.0125880758     0.6490636995     0.5029184666
C     -4.899905454     -0.7339658519     0.7900897449
C     -4.127067654     -2.9355602447     -0.0603251737
C     -4.5041879117     -1.1500284986     -1.6253248259
C     -4.7249096978     -1.6776005826     -0.321990817
C     5.0164919834     0.6372434091     0.4803073973
C     4.9018487283     -0.7455212089     0.7679924963
C     4.3104268755     -1.0609175098     2.0238885707
C     3.6223092883     -0.0683415111     2.7881441799
C     3.6522174411     1.2923115244     2.4557709751
C     4.4921947441     1.6361076309     1.3494817733
C     3.2246410287     3.6657969728     0.9704518352
C     4.1721585603     2.7889908088     0.5459415203
C     -2.4201247265     -0.6592173167     3.3557960371
C     -1.2281550199     0.0618682332     3.5037614356
C     0.0071712467     -0.6904275451     3.5013372874
C     1.2442658525     0.0589508123     3.4981913694
C     2.4338534716     -0.6649419257     3.3448585635
C     0.0098066702     2.2198993659     3.149664855
C     1.2665930702     1.5036667157     3.2704602974
C     2.4925416377     2.1115989987     2.7907563476
C     2.4191591141     3.3788843915     2.1490853529
C     -2.4747719618     2.1174528218     2.8019481922
C     -1.2481067732     1.5066318369     3.2761245467
C     -2.4012904386     3.3845608592     2.1599438668
C     -1.1876096342     4.0562871774     1.9913835935
C     0.0099742575     3.5364339185     2.5348022946
C     1.2063196467     4.0534734919     1.9859911807
C     -4.1628963946     2.7988177864     0.5647287956
C     -4.4820247035     1.6466862696     1.3697125821
C     -3.6378743603     1.3009068102     2.4721979592
C     -3.6096700745     -0.0598132515     2.8044418303
C     -3.2114066976     3.6733790376     0.9849533515
C     -4.5455015273     0.2665111011     -1.8726655491
C     -4.2855916535     2.4450688311     -0.8429322069
C     -4.87769105     1.1473371804     -0.8654500093
C     -1.1614622648     4.0345317693     -2.0365872367
C     -2.3947823054     4.3644599358     0.0208592514
C     -2.3726484549     3.9025640083     -1.3424179584
C     -3.2784530017     2.8316953744     -1.7539860841
C     -2.820171255     1.8345435816     -2.7282672009
C     -3.4931765611     0.6100763433     -2.7903676762
C     1.2114866208     4.7177164445     0.6726459627
C     -1.1971427457     4.7205522349     0.6780722588
C     0.0057941408     4.9129259854     -0.0372512187
C     0.0022918754     4.6118960872     -1.432859834


