100

 C     -5.1226801749     0.4633844832     0.3304215272
C     -2.7438998277     3.7840933438     -0.5931323687
C     -3.7960357502     2.9251563156     -0.2297671141
C     -4.2913823374     2.0859817832     -1.2694963907
C     -4.9533556167     0.840616105     -0.9783083967
C     -2.0563981923     3.6567859407     -1.8365418503
C     -2.3321960935     2.5796570415     -2.7100815207
C     -3.5319115916     1.8829141603     -2.4578259945
C     0.0985780709     2.5120410736     -3.2542285767
C     -1.2242060882     1.9212200816     -3.3862175474
C     1.1936328103     1.7570760947     -3.6670034866
C     0.3822064444     3.6091935707     -2.3247615739
C     1.7127846227     3.7224217583     -1.6969436829
C     -0.7171503166     4.1768985438     -1.6699827394
C     1.786015349     4.2912421513     -0.4121563217
C     -3.5085059002     -2.2337717661     -2.4564478127
C     -4.4342111363     -1.5146777559     -1.6565991041
C     -4.5873280026     -0.1425484407     -1.9820407781
C     -3.6913482308     0.5108036357     -2.8758114673
C     -1.3624441585     0.5311706362     -3.7575249885
C     -2.6154022607     -0.1658169265     -3.4956235158
C     -2.6093249735     -1.5708220217     -3.34303285
C     1.0556409016     0.3810427143     -4.017783255
C     -0.1771675319     -0.2724304576     -3.9648356186
C     -4.631163534     -1.9290665247     -0.2609770359
C     -4.9635798238     -0.9403182113     0.7035058116
C     -2.8006227693     -3.3880136438     -1.9350416984
C     -2.9825075073     -3.7801356103     -0.6335471076
C     -3.8864066069     -3.0378006772     0.2258401939
C     -1.4792495722     -3.4338612483     -2.5135594955
C     -1.8483354091     -4.2301150651     0.1359618642
C     -0.546990124     -4.3448742432     -0.4318048689
C     -0.3532942101     -3.9109455631     -1.804960935
C     -0.1387250676     -1.6961486322     -3.6528432136
C     -1.3668275335     -2.3230447901     -3.3812352965
C     2.2900676457     -0.2925478601     -3.7433520101
C     2.3283557527     -1.60412283     -3.2444093465
C     1.0691074425     -2.331989902     -3.1725904441
C     0.9421753757     -3.4458418227     -2.2477516421
C     2.0398469438     -3.7654693403     -1.415383884
C     -3.2873562227     -3.0247908976     1.5152754909
C     -3.4505968918     -1.9467697858     2.4056185048
C     -4.3997245774     -0.9620735167     2.0112165671
C     -4.2563566951     0.4131967304     2.4526973222
C     -3.2292407532     0.7409798287     3.3082128612
C     -2.0325030589     -3.7564835866     1.4580452192
C     -0.9354445868     -3.4273444545     2.2875236661
C     -1.0644846446     -2.3055219938     3.2023825157
C     -2.3250994582     -1.5794220232     3.2677200034
C     -2.2892860065     -0.2633765576     3.7549380368
C     1.3714229074     -2.2901056119     3.4109242887
C     0.1421406319     -1.6631325169     3.6769398876
C     1.8565581091     -4.2276142776     -0.0891168557
C     0.5554264486     -4.3397488244     0.4796604673
C     0.3609007669     -3.89392932     1.8488914161
C     1.4859417843     -3.4084053644     2.553190057
C     -3.8906289564     2.4939503384     1.1553678101
C     -2.8126434489     2.8542127831     2.0829067869
C     -4.6278142775     1.3047937137     1.404417344
C     -2.5405061058     1.9844335131     3.1522507529
C     -0.3887798699     3.6291438962     2.3015513247
C     -1.7195634077     3.7342457292     1.672757312
C     -1.7938546062     4.2914211708     0.382938179
C     0.7095120299     4.1930463148     1.6417195395
C     0.6086268897     4.6734434501     0.2984056903
C     -0.6171814263     4.6694725678     -0.3310192876
C     -1.196724313     1.7875555386     3.6602885842
C     1.2208039996     1.9537619144     3.3780393054
C     -0.103092567     2.5408766861     3.2407869551
C     3.5285879839     1.9115011473     2.4500018066
C     2.3275582959     2.6082105323     2.6960360059
C     2.0497348434     3.6769667035     1.8129061617
C     0.1779051872     -0.2366128483     3.9762169374
C     -1.0561348639     0.4149767206     4.0233349956
C     2.6124959708     -1.5359133698     3.3659985902
C     2.6159349636     -0.1295924212     3.5060587793
C     1.3616625944     0.5673436765     3.7617407322
C     3.6906098559     0.5434823076     2.8802204313
C     4.9519988984     0.8587044702     0.9798311858
C     4.2876796255     2.1053713041     1.2598943474
C     3.7907570959     2.9342864808     0.2127139447
C     2.7370029836     3.7944536473     0.5684028013
C     5.1220606459     0.4701261595     -0.3254812788
C     3.5129274069     -2.2050604174     2.4853601444
C     4.4372852562     -1.4914036495     1.6791195768
C     4.5878218549     -0.1161390551     1.9923075607
C     3.8923744953     -3.0323007602     -0.189650356
C     2.9898641986     -3.7686317748     0.6763335091
C     2.8072211959     -3.3652339062     1.9742747371
C     4.965612323     -0.9371503647     -0.6860209116
C     4.6350391381     -1.9178695053     0.2872479016
C     3.2281241735     0.7175316657     -3.3056218719
C     4.2558559553     0.3993485512     -2.4472261067
C     4.4018126336     -0.9716505886     -1.9934887801
C     3.4545407747     -1.9616143789     -2.3790730526
C     3.2933245431     -3.0319508719     -1.4791448516
C     3.8861793214     2.490906761     -1.1685190465
C     2.8075267196     2.8408293305     -2.0992312932
C     2.5370406752     1.9610218246     -3.1607626807
C     4.6256125433     1.3009710841     -1.4069451284


