100

 C     2.4755857128     -3.8750280308     0.744665386
C     3.0826525733     -3.041859694     1.707952884
C     4.1715483997     -2.2618107362     1.2329900789
C     4.5064967496     -0.9994653336     1.8542340688
C     3.7908421528     -0.5807740823     2.9455532829
C     1.1352992286     -4.3485169671     0.9225892918
C     -1.0461601852     -4.0948741309     1.8524788233
C     0.3477271269     -3.9372814822     2.0217018429
C     0.8681586274     -2.9224292896     2.9406124826
C     2.2630575447     -2.5570231229     2.8259196776
C     2.6787483281     -1.3583129565     3.4423707161
C     3.0701928314     2.9163747101     2.0083261561
C     3.8547458691     1.7578446845     2.0759319531
C     3.4858541143     0.8202372948     3.090726652
C     2.2388653623     0.9146259196     3.7633354509
C     -1.89707432     0.1890596772     3.8446882217
C     -0.5446925095     0.4577652737     3.9846743806
C     -0.0661399523     1.8077424776     3.6525229081
C     1.364292066     2.0048068323     3.5618170282
C     1.8783968377     3.071234514     2.7888535028
C     -1.9798548389     -3.2771979438     2.5769483541
C     -1.5020706084     -2.2294878408     3.3907255421
C     -0.0724525076     -2.0197441371     3.5727219338
C     0.3658161044     -0.6988315597     3.9876615475
C     1.733676412     -0.4318891326     3.9597168001
C     -2.3860306992     -1.1386446592     3.5587244395
C     4.5168101098     1.2952104725     0.860288496
C     4.923241004     -0.0582761642     0.8309451583
C     4.9577507128     -0.80260142     -0.3900355665
C     4.215643211     1.9593980252     -0.4149150349
C     4.356694135     1.2183914468     -1.6024847419
C     4.6967990191     -0.176605158     -1.5866472657
C     1.6669614148     4.3722101708     0.8827904778
C     2.8855369502     3.645966223     0.7672476389
C     3.3170955282     3.1077267032     -0.4647288436
C     0.9267969016     4.661460974     -0.2455971605
C     1.3231183189     4.1343591499     -1.5089486875
C     2.4722359362     3.3373510605     -1.6420214616
C     -0.5036653536     4.6895596469     -0.1626870349
C     -2.5086752695     3.9021427308     0.8716689366
C     -1.1733887705     4.321802854     1.0328447483
C     -2.8071935033     1.1404060874     3.2894514083
C     -2.3490149707     2.3982122674     2.8402187345
C     -0.9512280418     2.7516167668     3.0196439286
C     -0.3952172461     3.8172730169     2.1735859149
C     0.9942546563     3.959809686     2.1007660462
C     -3.1230188231     2.9910767326     1.8102799523
C     2.1377813276     -0.1093826354     -4.0619286054
C     3.9480752948     -0.8595811282     -2.6281228725
C     3.3140207316     0.1631113826     -3.3987571979
C     2.4734362254     2.3980702383     -2.748928771
C     3.4889950425     1.4321873704     -2.7501039195
C     1.1191416758     0.8862072882     -4.1473526103
C     1.2319644949     2.1199698254     -3.4906233625
C     1.5150898354     -1.3939282552     -3.9142570848
C     2.0275756044     -2.3714073741     -3.0509154826
C     3.3214350373     -2.1030587219     -2.3964933033
C     3.6376346624     -2.7760825446     -1.1404339786
C     4.4520013581     -2.1409595443     -0.1648873202
C     2.7179569366     -3.7206811577     -0.6504032269
C     0.0960194918     -1.1961270042     -4.075236397
C     -0.8554038086     -2.0621841759     -3.4961837333
C     -0.3799000013     -3.1750131133     -2.7053517959
C     1.0648058301     -3.3113635831     -2.4706074792
C     1.4842270775     -4.0327516818     -1.3434875154
C     -2.6636877667     -3.3932853288     -1.8099399467
C     -1.3113966808     -3.8223666241     -1.8034449302
C     0.0985111607     3.8673709338     -2.2515375336
C     -0.008070452     2.8027532194     -3.151632348
C     -1.3154382789     2.1571382542     -3.3269011862
C     -1.3566713275     0.8014170937     -3.8262685767
C     -0.145245182     0.1974065462     -4.22421199
C     -2.446633708     -0.0989702402     -3.5311215425
C     -2.1951863352     -1.5340427419     -3.360884922
C     -3.0985156308     -2.2868663864     -2.586702081
C     -0.8317395859     -4.4557311575     -0.5846222507
C     0.5539335712     -4.526003799     -0.3739236894
C     -1.6282304391     -4.4338207264     0.5917847187
C     -4.438108857     -0.3193809473     -2.0522356028
C     -4.2009091704     -1.655602196     -1.8885227218
C     -4.348900049     -2.2595037157     -0.5987074858
C     -3.4775734159     -3.4138660955     -0.6010450505
C     -2.9502298504     -3.8782428314     0.5777597879
C     -2.452769788     2.6534625786     -2.5863777593
C     -3.5790514687     1.8018563046     -2.443690913
C     -3.5840000528     0.4658649886     -2.9211100062
C     -4.1329946115     2.7179775195     -0.2369104197
C     -3.0899165467     3.690137456     -0.4102998571
C     -2.2792886053     3.6942232669     -1.5830994069
C     -1.0125715733     4.2827293114     -1.4423032173
C     -4.404552991     1.8303037398     -1.2429073932
C     -3.835765684     0.4097898539     2.6145372247
C     -4.4548981008     0.9089038239     1.4517532508
C     -4.1508126565     2.2652184858     1.1347429035
C     -3.1776242842     -3.1436213468     1.7981537397
C     -4.5581894125     -1.4699122563     0.5609067389
C     -3.942540848     -1.9489532999     1.8019447815
C     -3.5743705951     -1.0000569795     2.7878121951
C     -4.8352924352     0.4812004474     -0.9344956144
C     -4.8133315047     -0.0343138937     0.383196711


