100

 C     2.2452187111     -4.0442946033     -0.7391725879
C     1.0332874931     -4.3122356001     -1.4360913813
C     -2.8787526026     -3.2431279301     -2.0916866929
C     -1.7122393793     -4.0446210434     -1.9731041822
C     -1.3243408907     -4.5802046134     -0.7201398352
C     0.056137379     -4.7632355064     -0.4862943071
C     -3.6296383703     -2.8213850023     -0.9410874138
C     -3.2823266135     -3.4377346106     0.2721789359
C     -2.1482978565     -4.3017309885     0.3962001328
C     -3.9842729863     -1.4328665352     1.5781972974
C     -3.4522654371     -2.7373264414     1.5195071914
C     -3.6568093402     -0.7108997921     2.7509903977
C     -4.1983589731     -1.4613356178     -0.9066147899
C     -4.1298916551     -0.7085321081     -2.0960222206
C     -4.3259792028     -0.7245542675     0.3390129007
C     0.6154385097     -4.5617467849     0.8213428193
C     1.9781451898     -4.1566502512     0.6625971487
C     2.5924163485     -3.2919482654     1.5855386694
C     3.74590545     -2.6198276242     1.1106948528
C     -1.5653553022     -4.0622457313     1.6941642692
C     -0.1537765376     -4.0786111326     1.9026899885
C     4.9634553182     0.7015768983     0.702742045
C     4.9647698445     -0.6824262148     0.7044188745
C     0.4436532575     -3.1351463439     2.8606621202
C     1.8206533109     -2.7241945465     2.6784334417
C     4.2120291827     -1.3880952657     1.6994152966
C     3.4174419672     -0.7216256851     2.6516898993
C     -0.4492703981     -2.3242594174     3.6658295335
C     4.209373535     1.4082222289     1.6960293401
C     0.0823684674     -1.1645100014     4.2748646864
C     1.4011078251     -0.7191449583     3.9993027251
C     2.2867383405     -1.4572670091     3.2194886637
C     3.4160507324     0.7425505354     2.6499167413
C     -2.4101842713     -3.1663969089     2.4074318335
C     -2.660649159     -1.1688520973     3.6797654859
C     -1.8927440158     -2.3259812613     3.4153753127
C     4.605186022     -0.714026961     -1.7199073054
C     4.6038182575     0.7266113742     -1.7216562585
C     4.8343125623     -1.4083976274     -0.5407108097
C     4.8316164225     1.4242748404     -0.5441439142
C     4.088630286     2.6253492954     -0.2896071065
C     3.1826929891     3.1466114344     -1.2494284287
C     2.2375107644     4.0547386447     -0.7489788498
C     1.3997246174     0.7394914032     3.9975389577
C     2.2839508585     1.477408209     3.2159408283
C     1.8154573354     2.7421358453     2.6718231429
C     2.5861418397     3.3087031589     1.5775481435
C     3.7409042794     2.6376306051     1.1043254357
C     1.9702244482     4.1699856484     0.6525150761
C     -0.7082730386     -3.516180948     -2.8893582853
C     0.6644219305     -3.5444339261     -2.5849913096
C     4.0936104059     -2.6102652006     -0.2832618402
C     3.5616245672     -1.1604205343     -2.626193048
C     2.8381738999     -2.3401106493     -2.4225454102
C     3.1886733456     -3.1355825669     -1.2418177596
C     1.5079295145     -2.4373262555     -3.0094053288
C     2.9372284213     0.002923173     -3.1872210514
C     0.8980675967     1.2753226352     -3.6334491639
C     1.6007692073     0.0011333657     -3.6121548784
C     0.9004968516     -1.2744405164     -3.6303696889
C     -1.2781899057     2.4219989843     -3.6066813508
C     -0.5246902281     1.2612067026     -3.9135854628
C     -1.2329891879     -0.0020917227     -4.0493757845
C     -0.5222869006     -1.2637090794     -3.9105357475
C     -1.2735779789     -2.4251840604     -3.6008193995
C     2.8337108033     2.3476114498     -2.4282247026
C     3.559407585     1.1688121773     -2.6290171819
C     1.0250740734     4.3186772426     -1.4465400954
C     0.6576741811     3.5473919394     -2.5935772504
C     1.5032826373     2.4408641615     -3.0153079595
C     -0.7149628555     3.5157899255     -2.8978679776
C     -2.650467206     -2.3390808286     -3.1839042263
C     -3.2881211685     -1.1383058486     -3.2159014773
C     -2.6394421295     -0.0031085857     -3.7857784902
C     -2.8849176479     3.2405483153     -2.0995336705
C     -2.6549145078     2.3342906509     -3.1895594981
C     -3.2902810519     1.1322301739     -3.2186481718
C     -3.2888694129     3.440119513     0.2638560395
C     -3.6350037268     2.8201699901     -0.9479136247
C     0.0470673157     4.7701177266     -0.4978334919
C     -2.1564850458     4.3065673652     0.3857830604
C     -1.3330563858     4.5838963373     -0.7312309842
C     -1.7199309341     4.0445411758     -1.9828935399
C     0.0801372428     1.1830102507     4.2720269655
C     -0.4537048985     2.3402673942     3.6601909497
C     0.4376803878     3.1509022361     2.8530628517
C     -1.5730919748     4.0713444153     1.6843256488
C     -0.1615463752     4.0909002273     1.8928087127
C     0.6067474251     4.5728672237     0.8102881049
C     -2.6628827675     1.1806904647     3.6769258142
C     -2.0587723322     0.0071763273     4.2428931869
C     -0.719655599     0.0088106252     4.5397600969
C     -2.4162177185     3.1756202766     2.3997623735
C     -1.8971766171     2.338635512     3.4097348335
C     -4.1312347291     0.7035730688     -2.0977305921
C     -4.201136219     1.4591283023     -0.9101504952
C     -4.327357277     0.7251290821     0.3372590259
C     -3.4574756938     2.7424152924     1.5128794202
C     -3.986998922     1.4370917622     1.5747242689
C     -3.6581655091     0.7185938827     2.7492614822


