100

 C     3.0825758012     -3.7666246032     -0.2693978452
C     3.7622896569     -2.898038751     0.6140668779
C     3.4184514497     -1.4000818706     2.6412957639
C     4.4404593586     -0.5685512608     2.1475825412
C     4.4758498849     0.8339514036     2.4271664926
C     3.4788485027     1.4023661367     3.2109726751
C     1.8526478376     -4.3900940215     0.0890623252
C     1.3476783601     -4.2419898455     1.3732096927
C     1.9964716552     -3.3422296844     2.2799218077
C     3.1629054012     -2.6505415456     1.9318027891
C     2.3600091374     -0.795587013     3.4609467896
C     2.4259405756     0.5810759082     3.7227539996
C     -0.4255622877     -4.1801008941     -0.8506463169
C     0.9447667328     -4.3172656695     -1.0267934279
C     -0.0616344169     -4.1775136309     1.5766401398
C     -0.9649222152     -4.207428039     0.5086458567
C     4.3813500563     2.7285994489     0.8736483682
C     3.339921834     3.3204787192     1.6927156306
C     4.9462521911     1.5192063408     1.2399683511
C     2.9093478519     2.6795037079     2.8444353398
C     1.5093240128     2.649539346     3.1558755058
C     -1.7994308006     3.4241339808     1.6003319718
C     -3.1300139499     2.9978149068     1.7302504953
C     -0.8204017555     2.8561090145     2.4933407794
C     0.5492456526     3.2810418659     2.3483346477
C     0.9967678051     3.9185744339     1.1116391282
C     2.3708233934     3.9191635889     0.8183863914
C     0.9458873388     -2.7349184365     3.0883146763
C     1.0479359326     -1.4160450917     3.5583065819
C     -1.4438727814     -1.2231513087     3.3672109284
C     -0.1703726255     -0.6381981645     3.6818246624
C     -0.0547894656     0.8127158389     3.6934060947
C     1.2162934291     1.3743044062     3.761712998
C     -2.4497371128     1.0781342764     3.1316302565
C     -1.1323803221     1.6495032275     3.2125936896
C     -3.4645604055     1.8492052797     2.5313157564
C     3.5045338945     2.0579773568     -2.6728217321
C     4.3636463778     2.0445613086     -1.5319343973
C     4.0630009496     2.9888704924     -0.5158007294
C     2.8416342743     3.7406873515     -0.537709173
C     0.5114700769     3.8022431554     -1.3292743675
C     1.916182621     3.6152821513     -1.5914812268
C     2.3069785928     2.8161144003     -2.6937760651
C     -1.7775418604     3.4119131686     -2.0274675046
C     -0.4342009577     3.2820590413     -2.2962190236
C     -1.350520329     3.9554343355     0.3161863202
C     0.0535526154     4.0272788347     0.0126357425
C     -2.2550284117     3.88379806     -0.7635973685
C     4.9953481969     0.7723941504     -1.1491965956
C     5.2405036591     0.5212547362     0.232748286
C     3.245649532     0.8493861257     -3.4302767647
C     3.8666451519     -0.3212889757     -3.0965641764
C     4.7667169899     -0.3752454454     -1.9538807844
C     2.9798784588     -3.4456088343     -1.6848509229
C     3.7183613783     -2.4293536338     -2.2246732553
C     3.1373890368     -1.55970357     -3.2003041321
C     1.8607324704     0.8244624543     -3.8315131481
C     1.0674049237     -0.351085229     -3.7974663687
C     1.7428329218     -1.5973876973     -3.4737643942
C     -1.1623330955     -1.3771070361     -3.2530635421
C     -0.4787640621     -2.5699472181     -2.8043300353
C     0.9636197993     -2.6873168317     -2.9183791288
C     1.622284803     -3.6424756145     -2.1085941258
C     -2.5166504648     -3.2811881816     -1.655033606
C     -1.155728938     -3.4575052167     -1.8796954909
C     -0.9356796486     1.1018664415     -3.4621774231
C     -0.3639619284     -0.2103546559     -3.6293885934
C     -4.443885852     0.2851843701     -2.3028935286
C     -3.1947386949     0.1098635234     -2.9689631178
C     -2.5739617602     -1.2119101832     -2.981251708
C     -3.2527246026     -2.2551854934     -2.2964805716
C     -0.0466269519     2.2242569559     -3.21665763
C     1.3101946857     2.0698635856     -3.4449715921
C     -2.3404339388     1.2668620676     -3.1407505349
C     -2.7552065685     2.4989629349     -2.5808692491
C     4.9874180048     -0.7630670799     0.8089667337
C     4.6307303634     -1.6747140529     -1.3858651442
C     4.6261059925     -1.8769939283     0.0240213264
C     -5.5621013534     -0.2070777066     -0.280293315
C     -5.032961656     -0.7761247151     -1.5137448538
C     -4.444062586     -2.0165352605     -1.5117898038
C     -5.3292686162     -0.8726192068     0.925900057
C     -3.9286945586     2.6062143201     -1.7752032784
C     -5.398457445     1.2241521964     -0.3648198709
C     -4.7801707536     1.5201776796     -1.6496229106
C     -4.8052776065     -0.1338610981     2.0588749987
C     -4.6471381346     1.2406559838     1.9763075524
C     -5.0000285169     1.9482114483     0.7638246143
C     -4.0696848254     3.0486945366     0.631744293
C     -3.6037350878     3.4224844452     -0.6173108352
C     -0.2975931484     -3.2745866251     2.694361839
C     -1.4947752113     -2.5593037412     2.8219428791
C     -3.794073399     -0.9370548963     2.7020114061
C     -2.6136844886     -0.3688580708     3.2214029513
C     -4.3241001823     -2.7695859283     -0.2785551494
C     -3.1299945262     -3.5379948937     -0.3531488534
C     -2.3053741075     -3.7346578304     0.7643210226
C     -4.6911600074     -2.16966415     0.9280700475
C     -3.772306621     -2.2240302082     2.0306202501
C     -2.5981305869     -2.9810364034     1.9777932883


