100

 C     -4.6027356687     -2.2886541831     -0.7458218048
C     -4.3496967326     -1.6888342435     -2.0538586655
C     -5.0066032987     -1.4988096876     0.3087900781
C     -4.4980289298     -0.3306254776     -2.2198185099
C     -3.4831788305     0.402736637     -2.9283965353
C     0.1548537278     -0.0502467936     -3.8039356328
C     1.300473901     0.7555522775     -3.8286122372
C     -1.1397619314     0.6083944343     -3.6142520544
C     -2.307112047     -0.2130508874     -3.4290346827
C     -2.1752022972     -1.6591557415     -3.3010184498
C     -3.2272164705     -2.3583862986     -2.6493568506
C     -2.3088173551     2.5087703375     -2.4747426358
C     -3.4364281986     1.7122833238     -2.3667023282
C     0.1250681669     3.9344970029     -2.3796275606
C     0.0415937486     2.7859627028     -3.2181987424
C     -1.1785901686     2.0053138309     -3.2379495759
C     1.2518939757     2.1653652568     -3.5738609865
C     -1.6961687662     -4.0340239831     -1.8050133661
C     -3.6227987069     -3.3133899956     -0.5311071451
C     -2.9322061269     -3.4729830222     -1.7843462209
C     -0.8453550883     -2.2711541602     -3.3227280136
C     0.3409601764     -1.4598698172     -3.5437784173
C     -0.6872645202     -3.5207904096     -2.6884655356
C     -1.0665081732     -4.459244155     -0.5828739343
C     -1.5685614039     -4.024565796     0.6679465399
C     -2.909549832     -3.4398719963     0.6955931526
C     -3.2891737832     -2.5613014367     1.7877516593
C     -4.3922372582     -1.6775615928     1.5966876271
C     -4.4461001646     -0.3956016572     2.2509271428
C     -2.2805321371     -2.2030807713     2.7767655422
C     -2.4609937756     -1.0099281197     3.5122600168
C     -3.5204354164     -0.0911320317     3.2132928921
C     0.1290620045     -1.9973755259     3.3705594445
C     1.4433429636     -2.4245750769     3.2137083156
C     0.8109328715     -4.052078598     1.4875785582
C     -0.5878005454     -3.7182253363     1.7071460608
C     -0.9357742492     -2.7367024175     2.7114824179
C     1.7876873323     -3.4935492064     2.3477577509
C     0.3298255668     -4.5218765877     -0.8577154264
C     1.2806991976     -4.434353843     0.1620153486
C     3.5643225349     -3.5795270233     0.6588676718
C     3.1656016813     -3.2984824979     1.9547077601
C     2.5959841103     -4.0939222871     -0.2627310468
C     2.5867914926     0.2778241907     -3.432129013
C     2.7774256434     -1.0373191571     -3.0017816609
C     1.6523087577     -1.9454078986     -3.129549112
C     1.7386655858     -3.1990869929     -2.4103433529
C     0.5655086816     -3.9208250024     -2.1462688704
C     2.8145048087     -3.4462597317     -1.5246207535
C     -2.4623770474     3.2902941201     2.2169269615
C     -3.3866822747     2.2449642928     2.3807252187
C     -3.0301749173     1.2602245303     3.3390738584
C     -0.0420464543     -0.6264486504     3.8157944481
C     -1.3530672436     -0.2051643363     3.9481270182
C     -1.7002541009     1.1818541679     3.8446566516
C     1.024097937     0.3696098468     3.6686631103
C     -0.7104100166     2.1391581242     3.5295165382
C     -1.1792692819     3.2749263919     2.8323292613
C     -4.250924701     1.8886248016     1.2575249547
C     -4.8826142211     0.621059463     1.2982547663
C     -5.2545189183     -0.0745548288     0.1110493205
C     -3.9657884771     2.479617109     -0.0495840496
C     -4.3194540203     1.7534406112     -1.2004555388
C     -4.9873711975     0.4958875902     -1.1329079341
C     -1.0263591573     4.5916934319     0.9307680816
C     -2.3245124132     4.0065971072     0.9522107631
C     -2.9171562961     3.482375416     -0.2081627092
C     -0.3869693381     4.818244265     -0.2831886881
C     -0.9653172644     4.2837268557     -1.485568764
C     -2.1522865254     3.5612190356     -1.4668800583
C     2.5577812208     -1.5053158935     3.3206688659
C     2.3560515277     -0.1024717545     3.3871323121
C     0.6826538304     1.7456827285     3.4228032188
C     1.6111666256     2.6057280935     2.6868192253
C     1.0881239658     3.7586494224     1.935755963
C     -0.2789604379     4.0677563892     2.0362257056
C     3.3263443585     0.7730371254     2.7594428813
C     2.919487682     2.116779522     2.3674388351
C     3.6365947342     2.7435479235     1.2912275304
C     3.0397295242     3.6858140405     0.4341002004
C     1.7730719282     4.230719798     0.7296682386
C     1.016409817     4.7156213376     -0.3712548818
C     4.5416574344     -1.2496251786     1.9534724694
C     3.6434017109     -2.0854112502     2.5998749838
C     4.9283694745     0.7326256101     0.854657714
C     4.4238550258     0.163417687     2.0857523189
C     4.5641268826     1.9856869784     0.4819011692
C     4.4313460353     -2.6591479221     -0.0581192039
C     5.0892937916     -0.3254947971     -0.131278407
C     4.9545582133     -1.5523419094     0.5794401548
C     3.3384888534     1.3949695504     -2.9101505284
C     4.349952116     2.2957741872     -0.9078679881
C     4.2555281459     1.2216907023     -1.8579371412
C     4.5723557202     -0.1461290254     -1.4412767646
C     3.882222104     -1.2804682808     -2.0637128132
C     3.9049448881     -2.516668294     -1.3880853719
C     1.3389960236     4.2653577678     -1.7311115398
C     3.4606094676     3.3980176691     -0.9387090328
C     2.5437669714     3.5715404635     -2.0080172056
C     2.5058732414     2.5599774105     -3.0041329765


