100

 C     -1.9600711127     -4.055187569     1.0235669669
C     -2.7330719774     -3.783147567     -0.1155622829
C     -3.9536321105     -3.055628703     0.0920961993
C     -4.5120469902     -2.2193213088     -0.9462996314
C     -3.872004252     -2.1298060514     -2.1530283963
C     -0.5332199202     -4.2538503591     0.9227556037
C     0.1545377255     -4.2244187523     -0.3087312833
C     -0.5954365788     -3.8472742065     -1.4877468551
C     -2.0332971586     -3.6581394155     -1.3970022238
C     -2.6328834017     -2.8624642998     -2.3843343047
C     1.5275888804     -3.2316433748     -2.529923536
C     0.1292768915     -3.1856531958     -2.5432461423
C     3.5172683348     -3.1099756094     0.961193548
C     2.2184642287     -3.6447489014     1.0084339897
C     1.5852495494     -4.0678650775     -0.2382255863
C     2.2630411524     -3.7867899628     -1.4464896061
C     -3.7849462323     1.5162664364     -2.7404472147
C     -4.3998212964     0.3020002586     -2.3306718023
C     -3.8159221228     -0.8742117596     -2.866985121
C     -0.4732068679     -2.1265096202     -3.3207244939
C     -1.8588143843     -2.0655729785     -3.2864856565
C     -2.5605552383     -0.8407856681     -3.549766075
C     0.2931967377     -0.9245786387     -3.6678586092
C     -1.8365329512     0.3545715898     -3.7695888043
C     -2.5439020708     1.5353120263     -3.4425341094
C     -5.0439278496     0.2343545372     -1.0158121542
C     -5.1000179894     -1.0291875149     -0.3480950592
C     -3.7776345895     2.6799567747     -1.8775595727
C     -4.3015817621     2.5867649686     -0.6103468105
C     -4.9640332388     1.3782447846     -0.1746233751
C     -2.5621892163     3.4188205755     -2.080450178
C     -1.8918988807     4.0537370345     -0.9974912451
C     -0.5354928155     4.3178115967     -1.2105798016
C     1.7548373919     1.5177329885     -3.1456806163
C     -0.4043955137     2.7463945249     -3.1166925032
C     -1.8135724345     2.7202977598     -3.0751935992
C     2.3609875551     2.5754565492     -2.3180514316
C     1.5546664615     3.6309065374     -1.8980128576
C     0.1948813451     3.7263504429     -2.2910247955
C     0.3601895992     1.5662836911     -3.4822164151
C     2.3229607392     -2.1884247586     -3.1378328916
C     1.7253343485     -0.9586892117     -3.5145171181
C     -0.3767285634     0.332073218     -3.7794931367
C     2.467762273     0.269285689     -3.2893588064
C     3.7853441422     0.1810760234     -2.7757547569
C     -4.7396648725     1.2551641533     1.2338965876
C     -4.6866042399     -0.0106772237     1.8663854245
C     -4.9270013717     -1.1522667872     1.0522443949
C     -3.8051532435     -0.1472363626     2.9859856278
C     -3.8570790984     2.3310931575     1.6481972436
C     -1.6220828156     2.8356390752     2.549824621
C     -2.8764156044     2.1289437103     2.6365560487
C     -2.9279066757     0.892860424     3.3506517076
C     0.7632116742     2.8502835492     3.1009739017
C     -0.4772281232     2.2774942363     3.2775283606
C     -2.3640703941     3.8314325978     0.3759004377
C     -3.5866034362     3.1623076874     0.5214896037
C     0.3765530999     4.5152366097     -0.1169029161
C     -0.0368798741     4.2205243704     1.2155715272
C     -1.3899369583     3.7532013448     1.4639267705
C     0.9965802254     3.8585660049     2.0996995971
C     -3.1413154784     -1.4137792235     3.2700390137
C     -3.3301239064     -2.5397756943     2.4291048699
C     -4.2233978545     -2.4136460916     1.3238642876
C     -2.2349133457     -3.4310067144     2.2829314337
C     -0.4876088681     0.9000893653     3.7823519741
C     -1.7227343937     0.2854290371     3.8808700337
C     -1.8634276229     -1.1332360029     3.8290055611
C     0.7282530908     0.0660674057     3.7484188649
C     -0.7230946703     -1.9503971113     3.5879751728
C     -0.9647463991     -3.1555553724     2.8988367674
C     1.9896979169     2.1131853943     3.321993218
C     1.9964358181     0.7119314937     3.5213661601
C     0.6017673211     -1.3504860401     3.546891093
C     3.1515219569     -0.0452142538     3.0658144435
C     2.9807089003     -1.4526484769     2.7393794894
C     1.7024507046     -2.0879105663     2.9229160228
C     1.3899128217     -3.2547022621     2.1241120213
C     0.0681159311     -3.7376175501     2.1012055278
C     3.9161599704     -2.0661150435     1.8522894058
C     2.9823458327     2.7454393203     2.5284563632
C     4.0736581812     2.0361676297     2.0780325697
C     4.2257782688     0.6630525457     2.4554765294
C     1.6854579926     4.2036909282     -0.5671267681
C     2.7061897766     3.7822956171     0.3081837832
C     2.3578075549     3.7321512516     1.6809771766
C     5.1973061171     0.5408153171     -0.945744931
C     4.3257244909     1.1937811428     -1.8881317706
C     3.5848363389     2.3330116931     -1.5522643946
C     5.2287168668     0.9983577535     0.3655709876
C     4.5482497288     2.2062897551     0.7182009598
C     3.751611143     2.9116545852     -0.2172744393
C     3.6220311237     -2.2421823558     -2.5532709345
C     5.1815470311     -0.8777769436     -1.2225764457
C     4.3633427594     -1.0766105457     -2.405117273
C     5.0674250308     0.0499272467     1.4574022467
C     4.9463512353     -1.2949227293     1.189332126
C     5.0906076718     -1.7853466194     -0.1677081825
C     4.2346183021     -2.9452512795     -0.2878487444
C     3.5819145323     -3.2155866558     -1.4747306059


