100

 C     2.6600157503     3.1029055934     2.1255766709
C     2.9913257035     3.4560506915     0.7992800518
C     4.0829885522     2.7346372952     0.2449087063
C     4.1500001203     2.4851857867     -1.1788183067
C     3.1783829051     3.0071116139     -1.996585386
C     1.3372964189     3.3389811897     2.632109452
C     -0.9882001187     3.7080278921     2.2934742327
C     0.3314627428     3.9251258909     1.8384560651
C     0.5672154764     4.1964862051     0.4284131158
C     1.9359545373     3.9996946336     -0.0755158345
C     2.1143133214     3.8256951106     -1.456294981
C     4.0649595009     0.3197964913     -2.38657011
C     2.9789345335     0.8531428343     -3.2190566572
C     4.6556830691     1.1740525979     -1.4208840508
C     2.6378268656     2.2059515173     -3.0522085234
C     1.300887546     2.6782962851     -3.2995377596
C     -1.0278035298     2.2795774887     -3.6010956888
C     0.2966894238     1.8410618156     -3.8170579741
C     0.5660702958     0.4370577135     -4.0241933162
C     1.9398793685     -0.0368030425     -3.7678766857
C     2.1392365084     -1.4075944524     -3.5995155188
C     -0.3269031391     3.906541278     -1.875620697
C     0.9927485343     3.6848425226     -2.3284393985
C     -4.0784738209     2.7322171205     -0.2702375815
C     -2.9867852544     3.4479988935     -0.8318044375
C     -2.6554853578     3.0815766061     -2.154499867
C     -1.332756556     3.3125167348     -2.6633689382
C     -0.5626455155     4.192017737     -0.4683647773
C     -2.1097594493     3.8401803525     1.4199598042
C     -1.9313914427     4.0003357715     0.0375083184
C     5.0770772713     0.6704912563     -0.1260504431
C     3.1872758053     -1.9437968804     -2.7504591003
C     4.1315457016     -1.1116812546     -2.1201256909
C     4.6553012395     -1.5977865101     -0.8898472509
C     5.076764947     -0.6713366997     0.1395073227
C     1.3431339216     -3.3397256742     -2.6270612408
C     2.6647156604     -3.1036849629     -2.1175548093
C     2.9930268297     -3.4568401456     -0.7905167948
C     4.0834568473     -2.7354567238     -0.2336899296
C     -0.9831296264     -3.7087045759     -2.2936573271
C     0.3355001891     -3.9258394588     -1.8356728019
C     -2.126687623     1.3707374671     -3.6182196245
C     -1.9269653975     -0.0016667817     -3.7724010162
C     -0.5525861371     -0.4780571392     -4.0208703788
C     -0.2836920539     -1.8799149288     -3.799088591
C     1.0403054876     -2.3162304223     -3.5757665901
C     -1.289065526     -2.7119355401     -3.2754727174
C     3.1737934251     -3.0079047925     2.0057599677
C     4.6524366196     -1.1748872231     1.4333857675
C     4.1472664297     -2.4860096144     1.1901862256
C     1.9356725265     -4.0004536472     0.0819027168
C     2.1109245713     -3.826461632     1.4630803641
C     0.5680680409     -4.1972030888     -0.4251025118
C     2.6308855396     -2.2067336131     3.0601655469
C     2.9716478982     -0.8539348192     3.227777945
C     4.0595603806     -0.3206160843     2.397740365
C     4.1267814099     1.110857948     2.1314471031
C     4.653322526     1.5969508979     0.9023516935
C     3.1811175994     1.9430021042     2.7596560771
C     1.2933792898     -2.6790412545     3.3044890798
C     -1.0359759917     -2.2802604772     3.6008046144
C     0.2880400574     -1.8417808919     3.8197470664
C     0.5569880792     -0.4377832035     4.0274843941
C     1.9313847363     0.0360386734     3.7742583724
C     2.1311541701     1.4068257499     3.6063479065
C     -2.1066575004     -3.8408262431     -1.4226704876
C     -1.9314079475     -4.0009859092     -0.0398220823
C     -0.5638100875     -4.1927026356     0.4691287635
C     -0.3312334929     -3.9072384996     1.8769121769
C     0.9874016353     -3.6855793937     2.3326992491
C     -1.3388428576     -3.313189317     2.662394904
C     -2.1348724207     -1.371389742     3.6154566624
C     -1.9354615309     0.0010088225     3.7700875564
C     -0.5616317632     0.4773611089     4.021646074
C     -0.2922040616     1.8792134094     3.8004703407
C     1.0323036265     2.3154909547     3.580127297
C     -1.2963737452     2.7112630475     3.2745967569
C     -3.1829328548     -1.9160278083     2.7718105323
C     -4.6509481828     -1.5886069399     0.9078277203
C     -4.1271725479     -1.0902285296     2.133178477
C     -4.0605283214     0.3438416181     2.3852858584
C     -2.9744847578     0.8854549655     3.2123867257
C     -2.6333299816     2.2365163981     3.0320075559
C     -3.169496027     -3.0277040136     -1.9735222916
C     -4.1429470902     -2.4976285966     -1.1632115986
C     -4.0791446984     -2.7328123281     0.2630909299
C     -2.9887413827     -3.4486250178     0.8271137525
C     -2.6604169652     -3.0822134064     2.1505515055
C     -4.0551564526     -0.3444400386     -2.3923832453
C     -2.9672657837     -0.8860830216     -3.2170377017
C     -2.6265529297     -2.2371527331     -3.0358937763
C     -4.6480669931     -1.1889895133     -1.4195233767
C     -5.0726354153     0.6719233874     0.1213670087
C     -4.6488496096     1.5880242407     -0.9162584701
C     -4.1223266342     1.0896309587     -2.1404275132
C     -3.1766304489     1.915404994     -2.7769361753
C     -5.0723769814     -0.672494635     -0.1307494252
C     -3.1738543599     3.0270821032     1.9684155474
C     -4.651225194     1.1884100446     1.4110953993
C     -4.1454980763     2.4970380437     1.1559197125


