100

 C     -2.8575633718     3.2208952833     1.7709807817
C     -3.969771975     2.8038053849     1.0010261443
C     -4.6341378305     1.5631857417     1.2352782105
C     -2.3666410342     2.3206320489     2.8156996188
C     -3.0815343027     1.1444558776     3.0597710347
C     -4.2289591121     0.7642352078     2.2852832186
C     1.2200252624     3.3723991669     2.7587337468
C     -0.1968608952     3.4194714564     2.7928910922
C     -0.9636517217     2.3228883757     3.2143899828
C     1.9340759988     2.2068784408     3.1119854434
C     1.1773334623     1.0485641047     3.5535654342
C     -0.2660952819     1.0995457454     3.5999488742
C     -1.0292899918     -0.1423046323     3.6536884035
C     -2.4134181398     -0.0667185252     3.4601698965
C     3.1956677187     -0.320784901     3.1984014235
C     1.8364230213     -0.2507231392     3.5790687798
C     3.8686473797     0.7818497839     2.5801452078
C     3.2620394885     2.05624255     2.522853138
C     3.6631126274     2.8941171534     1.4491916686
C     -4.150135653     -2.6162140329     0.7702517833
C     -4.6700892027     -1.3109357177     0.9811808914
C     -4.2662651109     -0.6726673957     2.1789463742
C     -3.1694140484     -1.178082427     2.9491746819
C     -1.1358994745     -2.569815185     2.9718568562
C     -2.5428088464     -2.4032491725     2.6498628118
C     -3.1443943122     -3.17018872     1.6163737406
C     0.9570047237     -3.723406587     2.4824840863
C     -0.4328123528     -3.6810872457     2.3554466379
C     1.6794011968     -2.6804548     3.1195827607
C     -0.3887380882     -1.4462867265     3.5032538143
C     1.0480088505     -1.4888416149     3.5458320051
C     -4.9728498281     -0.4736526719     -0.188600252
C     -4.9695650102     0.9377842203     -0.042341679
C     -3.8709782075     -3.1018246672     -0.5650026599
C     -4.0290702348     -2.2701137744     -1.6517142863
C     -4.6067646312     -0.9563180201     -1.4756808443
C     -2.7425683193     -3.9899159481     -0.5250046152
C     -1.768428053     -3.9921829154     -1.56290012
C     -0.5043339823     -4.4918963959     -1.2099031292
C     -1.0207943695     -4.3776731473     1.2043673979
C     -2.3403691163     -4.0886500189     0.8401915494
C     -0.1670469726     -4.7875977464     0.141958347
C     -4.0073311148     -0.0981675096     -2.4441913658
C     -3.8706726639     1.2871633913     -2.2437399492
C     -4.4948918317     1.8020179055     -1.0690581827
C     -3.9728113156     2.9946322421     -0.4385463619
C     -2.984930656     3.7125822372     -1.0540119302
C     -2.9942176893     -0.8471985982     -3.14898448
C     -1.8212128492     -0.2494230911     -3.6055747351
C     -1.6702753941     1.2063651839     -3.4632331743
C     -2.7039399955     1.9566931969     -2.8099251272
C     -2.3523030062     3.2272931165     -2.2690381935
C     0.709460341     0.9458801817     -3.9665527629
C     -0.3441056561     1.7812395293     -3.5611025162
C     -1.845100097     -2.996104765     -2.6219066805
C     -3.0086102067     -2.2028327932     -2.6747176671
C     0.7013872451     -4.0749034047     -1.8957091654
C     0.6662518859     -3.0429298546     -2.8638883842
C     -0.6291571086     -2.4636836321     -3.2116294759
C     -0.6683918006     -1.1228129191     -3.7541200942
C     0.553822487     -0.5060794873     -4.0514521981
C     -0.6588510381     4.2973151877     1.7269791771
C     -1.9243227156     4.1434743903     1.1447423856
C     -2.003981662     4.3974459053     -0.2583182008
C     -0.8202026326     4.4803565725     -1.0433791325
C     0.4559458353     4.5900844958     -0.4727030517
C     0.4868099709     4.6572669549     0.9536454313
C     2.7871292364     3.9126093081     0.9621100944
C     1.645986765     4.2111709139     1.6646211716
C     0.0327733905     2.9997448674     -2.8653647982
C     -1.0264018398     3.7107018547     -2.257489239
C     2.0531119055     1.2408125129     -3.679705462
C     2.4307545552     2.3195387332     -2.8294297235
C     1.393747064     3.2292438075     -2.412081864
C     1.6020532775     4.0497071095     -1.207185096
C     2.7890610205     3.8729830724     -0.486413552
C     2.7501360031     -0.0370354816     -3.6368964316
C     3.8433121803     -0.2180197477     -2.8465296467
C     4.345051063     0.8877867506     -2.0604773727
C     3.6544107541     2.1467437756     -2.0434863222
C     3.7919748604     2.9128098864     -0.8726176017
C     3.0496359954     -2.5080234438     -2.2009662531
C     1.9041970011     -2.3284057228     -3.0837393231
C     1.8016790766     -1.1071336744     -3.8034818204
C     4.0184280487     -1.4583134291     -2.1270315538
C     3.0457837263     -3.5134542102     1.4015007556
C     1.8171560356     -4.2515033149     1.421001744
C     1.260699197     -4.6804066     0.2478549555
C     3.6379759997     -3.0639603587     0.187570532
C     2.9516246872     -3.3887634628     -1.0640724486
C     1.8076318564     -4.2285087416     -1.0115599998
C     4.5736076466     -1.1509154644     1.4915430767
C     3.7480316977     -1.5105500661     2.6000554761
C     3.0104024497     -2.6615902071     2.5496120436
C     4.6919200355     -1.1319066918     -0.9279528055
C     4.4788658586     -1.8728023589     0.2647132636
C     4.3743252619     2.3542231485     0.3173967312
C     4.9073836768     0.3232316421     -0.8944530729
C     4.8820716168     1.0338419202     0.3369963471
C     4.7037813055     0.2850848236     1.5281857791


