100

 C     3.9463799509     -2.5402450565     -1.0659939314
C     4.75732299     -1.3850503602     -1.1891763458
C     5.2324601147     -0.6682594719     -0.0510084266
C     3.5777853853     -2.9863840415     0.2798115249
C     4.0386540879     -2.2406742268     1.3781456424
C     4.8854591252     -1.1029722772     1.2279634703
C     0.3552351451     -4.6945793336     -0.5874625534
C     1.7298715544     -4.3155709157     -0.6320339288
C     2.3890544529     -3.8054123752     0.4985956121
C     -0.3333226594     -4.6922347361     0.6137098664
C     0.3147086676     -4.1853294975     1.7833795887
C     1.613083655     -3.673636214     1.7423774278
C     -1.5945709436     -3.6891120689     -1.7220236867
C     -0.2944868668     -4.1966757016     -1.7600594026
C     -1.7092256749     -4.3175878363     0.6560868914
C     -2.3701104734     -3.8162461755     -0.4774837082
C     4.926781347     1.6719482994     0.6434582444
C     4.5800270965     1.2120447805     1.9845435308
C     5.1999558095     0.7567737381     -0.3517598785
C     4.5240203827     -0.1376402711     2.2474143584
C     3.4085039111     -0.6574186307     2.9913241358
C     -0.1231209812     0.3987329072     3.7776717227
C     -1.3655067993     -0.2142689763     3.9052068081
C     1.0612888569     -0.4571448771     3.6546231421
C     2.3346983021     0.1648036881     3.422278095
C     2.4135880036     1.5994629222     3.1806538874
C     3.5668508677     2.0856680595     2.5126655268
C     1.9332967854     -2.5929787428     2.6757472783
C     3.1686449212     -1.9838147843     2.5258567184
C     -0.7070769469     -3.5928365744     2.6233239527
C     -0.4286337897     -2.4467817578     3.4081184954
C     0.8944173079     -1.8674643721     3.3878085988
C     -1.5289749359     -1.6383125729     3.7395454675
C     2.3166634743     3.9170662617     1.5313539698
C     4.1250721787     2.820600188     0.3454744412
C     3.4530625327     3.1709842173     1.5736444204
C     1.1814181684     2.3926306756     3.1114389289
C     -0.1092386664     1.7886218985     3.35452942
C     1.2030730374     3.602579747     2.393540048
C     1.8087363651     4.3780660609     0.2712771144
C     2.2434150317     3.7767240838     -0.9394212961
C     3.4510662286     2.9684193271     -0.899875716
C     3.6596560185     1.9552048586     -1.9216466606
C     4.6146215147     0.9329679396     -1.657306176
C     4.4772612208     -0.3868935031     -2.2166874137
C     2.583876233     1.6704666659     -2.880956333
C     2.5875120213     0.4181919521     -3.5201054404
C     3.5147657301     -0.6204527276     -3.1597743259
C     0.4349040803     4.687876419     0.5065526991
C     1.2336769796     3.5446190148     -1.9766218769
C     1.326351177     2.3902096477     -2.853845034
C     -0.4444832842     4.68337372     -0.5349049202
C     -0.033333613     4.1244586249     -1.8066065171
C     0.0256239298     4.1350130046     1.7814938098
C     -1.2394346684     3.5519179627     1.9548935048
C     -1.3282433344     2.4023357951     2.8388295179
C     1.9821992461     -3.7438155731     -1.9500026628
C     3.0463256541     -2.8502228959     -2.1746600675
C     2.8419791797     -1.8899430266     -3.2032225628
C     1.5406628182     -1.6549179692     -3.7310384264
C     -0.8819527362     -1.8901573079     -3.3779512259
C     0.4430375988     -2.4651351217     -3.3948996916
C     0.7253168002     -3.6056608072     -2.6034490366
C     -3.1557888648     -2.009116348     -2.5153137106
C     -1.9183998973     -2.6149924797     -2.6616647206
C     0.1279780994     0.3771359112     -3.7810051024
C     1.3724143514     -0.23242027     -3.9049817644
C     -3.5676505363     2.0590102411     -2.525805843
C     -2.4127533457     1.5727973668     -3.190960669
C     -2.3290452381     0.1370310034     -3.4242357737
C     -1.0535550171     -0.4819822756     -3.6529722985
C     -3.4000921717     -0.6862671825     -2.9884937317
C     0.1094237198     1.7694114077     -3.3659524509
C     -1.2089798695     3.5845155357     -2.4155284708
C     -1.1832555412     2.3704872286     -3.126373962
C     -4.926207058     1.6516231566     -0.65421175
C     -4.577894073     1.1850819172     -1.9925995472
C     -4.5173577776     -0.165913195     -2.2476120444
C     -5.1963161101     0.7413484635     0.3463206892
C     -2.323630434     3.9002781356     -1.5551816517
C     -4.1283588793     2.8046732329     -0.3629259839
C     -3.457515948     3.1501503512     -1.5931195527
C     -3.5065368885     -0.6138309997     3.1622917275
C     -2.5827801741     0.4300030918     3.5165646533
C     -2.5833429385     1.6785404302     2.8701385208
C     -4.4698012856     -0.389003549     2.2178691858
C     -4.6115868182     0.927107945     1.6508127481
C     -3.660061842     1.9540667492     1.9091900837
C     -3.454863227     2.9620061814     0.8815371513
C     -2.2499362853     3.7745837165     0.9163697064
C     -1.8172674503     4.3703176436     -0.2978160047
C     -1.9634809419     -3.7390155634     1.9707062961
C     -3.0306042357     -2.8477095068     2.1901670093
C     -2.829492     -1.8807786979     3.2131205014
C     -4.875565141     -1.1265000259     -1.2225533184
C     -4.0249450121     -2.2622054203     -1.3661192403
C     -3.561584934     -2.9999503487     -0.2634647957
C     -5.2240367275     -0.685514297     0.0538700881
C     -4.7465042473     -1.3940598716     1.1961891412
C     -3.9316848264     -2.5472213579     1.0797242683


