100

 C     -5.0170829966     -0.7122921225     0.6718254815
C     -4.5295941126     -2.0583461533     0.699535874
C     -2.4344964499     -3.9416253     0.8599953457
C     -2.6334753741     -3.0637473622     1.9580366554
C     -3.7649639364     -2.2242511871     1.9034851094
C     -0.2045524366     -3.3360520843     2.4799926584
C     -1.4721417587     -2.6805048733     2.7592753201
C     0.9460959652     -2.8121694481     3.0631059621
C     0.0007284905     -4.1898542787     1.3031095765
C     1.3207745787     -4.2445153577     0.6491910921
C     -1.1352529174     -4.4929436198     0.54805672
C     1.3510401594     -4.4463546036     -0.7464903011
C     -4.6128286518     -0.0626897705     1.894962266
C     -4.3523645948     1.3369190015     1.954487362
C     -4.5576652093     2.1075773816     0.7800509768
C     -3.3452250017     1.7803214957     2.8501395722
C     -3.7961393067     -0.9837985898     2.6170890904
C     -1.4895151827     -1.4152382597     3.4573399358
C     -2.6696673395     -0.5592004088     3.3739736805
C     -2.5202177013     0.8306200173     3.5625219275
C     0.92739451     -1.5627661032     3.7531645155
C     -0.2401062471     -0.8027450926     3.8583373072
C     -2.5244210758     2.9071072881     2.540462655
C     -2.6550537242     3.6296947243     1.3371024824
C     -3.7537835936     3.2417427324     0.500785881
C     -3.6110952014     3.2935982069     -0.9390892892
C     -2.4870317184     3.8199764366     -1.4809564493
C     -1.2228756612     2.6929254108     3.1254166792
C     -0.0425602951     3.233188655     2.5895384431
C     -0.13860499     4.0603349559     1.3974879475
C     -1.4475562335     4.2070920698     0.7471017745
C     -1.4556075611     4.4055548846     -0.6526640714
C     2.3060879274     3.8547699335     1.1811502325
C     1.0632456055     4.2930854587     0.6396518787
C     -0.0666597083     0.6408810018     3.8937049158
C     -1.2306179228     1.4230006068     3.7561269812
C     2.223260368     -0.9638747061     3.6644413162
C     2.3879835396     0.4210024335     3.5088665349
C     1.1988555456     1.2577388663     3.5999783052
C     1.1984962814     2.5713890108     2.9668085259
C     2.3642761215     3.0022270206     2.3114853011
C     -3.7972425175     0.0555113118     -2.6948475417
C     -3.5186037447     1.4179967028     -2.5843112054
C     -4.2065271297     2.1240599225     -1.5360741261
C     -0.4889139155     3.566092028     -2.6024368982
C     -1.8385833195     3.1689759638     -2.6203147985
C     -2.2305968539     1.9001926574     -3.0741642559
C     0.5226833382     2.7458758537     -3.1390429388
C     0.1943884374     1.3865290264     -3.5571406598
C     -1.1840303203     0.9650323073     -3.5221875787
C     -1.4814988229     -0.4498798661     -3.5509964069
C     -2.804499719     -0.8642274507     -3.2044892809
C     2.6349321684     0.8400027588     -3.2982019349
C     1.2640305473     0.4076495018     -3.6119278424
C     0.948459784     -1.0046688363     -3.5860441279
C     3.6139936543     -0.1059660511     -2.904919274
C     2.897138247     2.1548523693     -2.8471482851
C     1.826071682     3.0944473686     -2.7370688223
C     1.0014447503     4.416284123     -0.8068383014
C     -0.257010969     4.3662199835     -1.4138747109
C     2.0738228307     3.9459987044     -1.6131615175
C     -4.8525402303     1.4252292287     -0.4915800358
C     -4.6139821404     -0.6388463904     -1.7451491268
C     -5.0518841111     0.0117887124     -0.5553666603
C     -4.1640745951     -2.0017879745     -1.7167017988
C     -4.1246380499     -2.7185000431     -0.4948347176
C     -3.1230634584     -3.7214138794     -0.3703782108
C     -3.0933503747     -2.1439489544     -2.6731512636
C     -2.0786474999     -3.1171797421     -2.5359971296
C     -2.2179040708     -4.0327334947     -1.4585908082
C     0.1545306868     -4.5215567921     -1.5118402392
C     -1.0649706165     -4.6274064094     -0.8806903628
C     -0.4285673164     -1.4387142166     -3.5247032405
C     -0.75527876     -2.8028288993     -3.0652882626
C     3.2875744799     -1.5008344721     -2.855299435
C     2.0035149494     -1.9502824317     -3.2198147696
C     1.6546706428     -3.2086383242     -2.6908105759
C     0.2931021953     -3.6338205503     -2.6429660843
C     4.8437157811     -1.071323632     -1.2134292017
C     4.0352147017     -2.105764274     -1.8002601632
C     3.4661746849     -3.1429990994     -1.0073828579
C     2.3380428266     -3.7585752286     -1.5608398145
C     5.0359516649     -1.0725666304     0.1486050849
C     3.8645589692     2.4420390545     -1.8286757695
C     4.6367697109     1.4197567424     -1.2417039496
C     4.6039003669     0.1727120284     -1.9146546726
C     4.1982743191     2.4532698512     0.9743819826
C     3.4314974119     3.5068472793     0.3392239749
C     3.3125771214     3.5251578295     -1.0363049048
C     5.0264701862     0.1943155847     0.8812004621
C     4.8363285707     1.4310648974     0.2162226608
C     3.0738745539     -1.9108880034     2.9729025675
C     4.1476181641     -1.4834089308     2.2260806802
C     4.4338292202     -0.0646209449     2.1504477482
C     3.5710752451     0.8775874006     2.7787822841
C     3.5432041468     2.1583050434     2.2004656481
C     3.5987992203     -3.1123827528     0.4405378327
C     2.481042165     -3.598644026     1.2563963035
C     2.2743589511     -3.0040119974     2.5139002435
C     4.4445299696     -2.1070622084     0.9766309173


