100

 C     3.0609338186     -3.0683819593     1.4573801623
C     4.170935068     -2.5697501654     0.7358001034
C     4.9002483128     -1.4103213036     1.1750625655
C     2.5729032737     -2.3069727773     2.599440236
C     3.2607246551     -1.1414746621     2.9698031896
C     4.4521895588     -0.7086665203     2.2863434881
C     -0.9428101296     -3.564777935     2.5247896512
C     0.4911415457     -3.5222650595     2.5225051802
C     1.1830123247     -2.408747966     3.0000652232
C     -3.0239185819     -2.4163664309     2.5109620406
C     -1.6948636283     -2.4613298168     2.981845787
C     0.4267293422     -1.2352577578     3.4480005536
C     5.3719016609     0.6990317635     0.0001005228
C     4.8995421595     1.4292799596     1.1634281101
C     5.3722578586     -0.6893869577     0.0057911345
C     4.4518383017     0.7365519538     2.2804057937
C     3.2601207403     1.174355314     2.9603102015
C     4.1696419772     2.5847321053     0.7146433006
C     3.0593934129     3.0887527159     1.4321539594
C     2.571737886     2.3364862668     2.5804049518
C     -1.0124650961     -1.235870608     3.3995133655
C     1.1224238095     0.0183392324     3.5509289521
C     2.5366983426     0.0180672036     3.3964221613
C     0.4893795803     3.5500817187     2.4934760083
C     1.181819673     2.4408371469     2.9801802483
C     -1.7338025906     0.0169788761     3.3885954252
C     -1.0131046109     1.2702016817     3.3892350041
C     0.4261187562     1.2707032612     3.4377236905
C     4.4454121793     -0.7273215316     -2.2717727701
C     4.4450509293     0.7178915709     -2.2776815367
C     4.8967926598     -1.4198654247     -1.1561267531
C     4.8960751971     1.4197397237     -1.1677563704
C     4.1674952274     2.5788303369     -0.7262906021
C     3.2513241468     1.1501365106     -2.9576133008
C     2.5640548658     2.3153395436     -2.5852037664
C     3.0551146885     3.0769752597     -1.4446013647
C     0.9702548577     4.3259316677     1.3832937776
C     2.1565721933     3.954620393     0.7171989755
C     2.1544115024     3.9486743272     -0.7340835382
C     0.966117892     4.314542968     -1.3996690418
C     3.0566562255     -3.0801491622     -1.4193816043
C     2.5652238164     -2.328113841     -2.5661821326
C     4.1688004876     -2.5756478187     -0.705212684
C     3.2519238338     -1.165689227     -2.9481160118
C     2.5266158399     -0.0096797615     -3.3820758036
C     1.1118887458     -0.0106517491     -3.5323649419
C     0.4165200697     -1.2633580151     -3.4171013383
C     1.1741488347     -2.4331491568     -2.9618300229
C     0.4837102503     -3.5427137704     -2.4731123644
C     -1.023165936     1.2425047717     -3.3745705143
C     -1.7438460888     -0.0106598875     -3.3615169872
C     -1.0225253354     -1.2635640142     -3.3643245588
C     -1.7036654301     -2.4855555841     -2.9346137611
C     -0.9502439022     -3.5852306432     -2.470778039
C     -3.7596354866     1.1790894142     -2.4718111033
C     -3.1526434712     -0.0092757175     -2.9345907005
C     0.4819521589     3.5296299652     -2.5020136866
C     1.1729517577     2.4164346962     -2.981679205
C     0.415903753     1.2425987779     -3.4273646203
C     -0.9520479274     3.5714527882     -2.5000555234
C     -1.7049170151     2.4676434608     -2.9548767176
C     -3.0325424798     2.4220236758     -2.4800379552
C     0.9682744889     -4.3183600185     -1.3643068416
C     2.1563525844     -3.9464578384     -0.7017423674
C     2.158509985     -3.9405241025     0.7495395275
C     -0.1839469238     -4.797089819     -0.661832995
C     -0.1818822384     -4.7914343785     0.7235613299
C     0.9724147268     -4.3069776328     1.4186553909
C     -1.3819198605     -4.3912032518     -1.3727971132
C     -2.5969310584     -4.1190854548     -0.7019801973
C     -3.4809306382     -3.2367510552     -1.372714553
C     -3.0313165942     -2.4367208654     -2.460142355
C     -3.7590399791     -1.1941254903     -2.4620926977
C     -2.5947507588     -4.1130831239     0.765352965
C     -1.3777386189     -4.3797060906     1.4347440661
C     -3.4767518205     -3.2252680574     1.4314637234
C     -4.4679100825     -2.4424638716     -0.6608764792
C     -4.465863616     -2.4368274531     0.7160994431
C     -5.0368563828     0.0053221925     0.7480378073
C     -4.6801927068     -1.1892273407     1.4235637368
C     -4.6808151926     1.2055468582     1.4137599955
C     -4.4691519007     2.4417662891     -0.6808797057
C     -4.6849762236     1.1940681254     -1.3877014367
C     -5.039024052     -0.0006537399     -0.7111159358
C     -4.6843636574     -1.2007019308     -1.3779006632
C     -4.4671197224     2.4474216062     0.6960970374
C     -1.3841345571     4.3861720421     -1.4087495665
C     -2.599026126     4.1189546903     -0.7357233088
C     -3.4825725098     3.2307097854     -1.3991934305
C     -1.3799591197     4.3976725029     1.3987906854
C     -0.1843008687     4.8041347456     0.6842382084
C     -0.1863585904     4.7984751754     -0.7011234691
C     -3.4783995785     3.2421975636     1.4049692665
C     -2.5968434002     4.1249699053     0.7316067661
C     -3.7516434555     -1.1737856535     2.5048987423
C     -3.1438621908     0.0148870697     2.9658661594
C     -3.7522496682     1.1994341562     2.4951819651
C     -3.0251498014     2.4423888943     2.4910510393
C     -1.6961115166     2.4918722173     2.9615445971
C     -0.9446148354     3.5919095223     2.4954562202


