100

 C     -5.0035390745     0.7292203273     0.1491119009
C     -4.7359645781     1.6494939956     -0.896302501
C     -4.2828465425     -1.153422693     2.1932069655
C     -4.1729336281     0.1822232425     2.4375896496
C     -4.6064364624     1.1519238153     1.4552586103
C     -3.2827238606     -2.0483642116     2.7120488013
C     -3.8244034866     2.3179130065     1.6595382848
C     -3.5324648487     3.2180470871     0.6148793459
C     -4.067705356     2.8848049859     -0.6632479947
C     -1.394364947     3.7833068031     1.8374908163
C     -2.3189010904     4.0162267646     0.719528448
C     -0.1042565393     4.2993024111     1.751961525
C     -2.8284786097     2.0197831459     2.6907206727
C     -0.5929681932     0.4581741219     3.5234800795
C     -0.4454881549     1.8714501171     3.2442202544
C     -1.5766352019     2.6325874651     2.7208349353
C     3.0069347153     -0.6482890711     3.1306583992
C     1.9014733045     0.1848903348     3.451837211
C     2.0603689367     1.6154911184     3.2486831589
C     0.8803244166     2.4482026343     3.1159413428
C     1.0028150069     3.6871913251     2.4453312343
C     -1.0051096349     -3.65584337     2.491275017
C     -0.8820661544     -2.4087061041     3.1465043321
C     -2.0620010957     -1.5744230745     3.2699932877
C     -1.9029456043     -0.1414342281     3.4554337504
C     -3.0086843799     0.6877391975     3.1249657402
C     1.57456349     -2.5979506367     2.7516477889
C     0.4438467017     -1.8304247955     3.2665795949
C     0.5915524237     -0.413829117     3.5283343934
C     2.8263728369     -1.9855713661     2.7129650292
C     0.4080009084     4.861684919     0.5263820568
C     -0.3963191874     4.8561300857     -0.594141056
C     -1.7794653019     4.5450230793     -0.4751359451
C     -2.1789024772     3.9847950935     -1.7526084178
C     -3.2867662012     3.1927421658     -1.8502990103
C     1.7901117668     4.5445775706     0.411236032
C     0.1140539264     4.2770322222     -1.8127062615
C     1.4024461031     3.7557700887     -1.8918629088
C     2.3277711468     3.9993620816     -0.7768276408
C     3.2929637205     3.2043314715     1.8029392246
C     2.1877237652     3.9987849068     1.6955090062
C     4.0728564758     2.8792542526     0.6197776781
C     3.538693206     3.1985255174     -0.6623578459
C     3.8276373058     2.2846614397     -1.6958742461
C     3.2806226569     2.0825286391     2.6839353159
C     -4.175499578     -0.1674754099     -2.4422522653
C     -4.2807993789     1.1685279794     -2.1977852028
C     -3.2781465681     2.0601584244     -2.7174386881
C     -0.9950478252     3.6600998096     -2.4985204937
C     2.8307083151     1.9771675146     -2.7233303611
C     1.5808963901     2.5936819672     -2.7609931475
C     0.4472295563     1.8299028703     -3.2750032221
C     -0.876666143     2.4125658733     -3.1538503618
C     -2.0594551418     1.5821883244     -3.2763818274
C     0.5900363417     0.4128275684     -3.5368797528
C     -1.9052912945     0.1486820525     -3.4619447576
C     -3.0134905222     -0.6768329644     -3.130573529
C     -4.7406605831     -1.6328795367     0.8921001357
C     -5.0060460253     -0.7117276603     -0.1530974802
C     -4.6114067489     -1.1357413616     -1.4595682533
C     -3.8334057676     -2.3043076725     -1.6644848373
C     -3.5435880801     -3.2054020414     -0.6200587524
C     -4.0766787603     -2.8703967813     0.6585015735
C     -2.1906383057     -3.9766270497     1.7463290022
C     -3.295792865     -3.1809087585     1.8449150585
C     -0.119905689     -4.2979863781     -1.7599331212
C     -1.4083669666     -3.7777286012     -1.8444130768
C     -2.3327562786     -4.0075914182     -0.7256967823
C     -1.7940987427     -4.5381656401     0.4685289701
C     3.006504623     0.639298225     -3.1411702468
C     1.8980299849     -0.1902197346     -3.4614486977
C     -0.597355897     -0.4552564631     -3.5310563196
C     2.0523598088     -1.6213392488     -3.2584185375
C     0.8696769904     -2.4501453238     -3.1247135114
C     -0.4543229044     -1.8690068914     -3.2519165207
C     -1.5875560022     -2.6264097547     -2.7276099674
C     -2.8373364385     -2.0094711725     -2.6964764573
C     0.9886166183     -3.6895336208     -2.4542058014
C     3.280871708     -3.2142511239     -1.813679128
C     2.1730987479     -4.0050452463     -1.7053461548
C     1.7747326295     -4.549521174     -0.4207502312
C     0.3914887006     -4.8620609505     -0.5347694026
C     -0.4118920608     -4.8538441181     0.5864087484
C     4.1690916428     0.1384308232     -2.4476121747
C     4.2746044632     -1.1944677932     -2.1868381518
C     3.2715213377     -2.0924109413     -2.6946657664
C     4.7370379493     1.6446984369     0.8680069236
C     5.001552012     0.7107705715     -0.1660136397
C     4.6058172976     1.1186977923     -1.4772666819
C     4.6032936791     -1.1329735147     1.4654527026
C     4.1706057907     -0.1512684705     2.4361516815
C     4.280316553     1.1812748256     2.1752932818
C     4.7308581014     -1.6594018914     -0.8799255831
C     4.9993061223     -0.7263551798     0.1538773048
C     0.1013850437     -4.2764403917     1.8045573794
C     2.3151601531     -4.0060882265     0.7668761118
C     1.3915578317     -3.7594418589     1.8826645435
C     4.0627997457     -2.8917569295     -0.6311539928
C     3.5286316512     -3.2092603162     0.6514172292
C     3.8214425751     -2.2963582136     1.6846961777


