100

 C     -0.6305592165     4.4153988838     0.8855009723
C     0.7332695651     4.1917918022     0.6859159551
C     1.2370656824     4.1403694986     -0.6861665345
C     -1.5521841851     4.5038213923     -0.2138416932
C     -1.079212777     4.3706158242     -1.5033683668
C     0.3160146447     4.2083381186     -1.7395891237
C     -3.3069574046     1.7296707578     -2.7883963057
C     -1.8161141202     3.569140728     -2.444457143
C     -3.0008198643     2.8988951063     -2.056578549
C     -3.4959917227     3.0105789375     -0.6860717226
C     -4.2185536662     1.8759131493     -0.0912383367
C     -2.7988412148     3.8902853173     0.1760569174
C     -4.2268011059     1.7499862508     1.3052396876
C     2.511579628     3.5255945324     -0.9778076124
C     3.3440032714     3.2659380818     0.1226681642
C     4.426844073     2.3444629035     0.046510329
C     2.7012994614     2.7549797948     -2.2079091396
C     3.7687639673     1.8474482911     -2.2525007558
C     4.64873827     1.6481887919     -1.1423110166
C     0.4523110353     3.3417644352     -2.8996048576
C     1.5571707788     2.5169303002     -3.0897410332
C     1.3648096894     1.2312535394     -3.7610918195
C     2.4358172675     0.2684444751     -3.6589802384
C     3.6106188248     0.578063594     -2.9370314492
C     2.1423525946     -1.1059434025     -3.7913370301
C     -0.8574780805     2.9501419908     -3.3170169787
C     -2.3847153269     1.1479686112     -3.702167826
C     -1.0797152342     1.671700667     -3.8742585079
C     0.0326151289     0.7730312585     -4.0873387803
C     -0.2520361889     -0.6663303051     -4.1743945926
C     0.8138734896     -1.5590828811     -4.0454391936
C     4.8736469774     0.3247612056     1.3478249627
C     5.0729223573     -0.4133703838     0.1129813838
C     4.5303136443     1.6635509026     1.3175260802
C     4.9802017138     0.2390001884     -1.0997901688
C     4.3176152987     -0.4198817878     -2.1938187051
C     3.7870255604     -1.7378409954     -2.0500978653
C     2.7900681447     -2.0823841317     -2.9730128263
C     2.3986656906     -0.998998265     3.7465667602
C     3.2623633405     -0.0390436554     3.2015144085
C     4.227072076     -0.5381951181     2.2893757391
C     4.0286289869     -1.8106823348     1.6489816772
C     2.2875152337     -3.4485599785     0.9977185476
C     2.9606914307     -2.661790047     2.0064968745
C     2.2764155601     -2.3101153526     3.190924949
C     0.1553367701     -4.4437697607     0.2811316196
C     0.9463718903     -3.9524075886     1.3182484453
C     3.7935251448     -2.3928951247     -0.7334564421
C     4.4840245906     -1.7270651443     0.2929403747
C     1.850654156     -3.1318227102     -2.7029568086
C     1.8131263518     -3.7581728011     -1.4246064953
C     2.7166817114     -3.3260852042     -0.3767560567
C     0.579094786     -4.3532801288     -1.0844183426
C     2.7803859085     1.336121635     3.0963789739
C     3.4673907126     2.1627417038     2.1776076492
C     2.7835291179     3.181644447     1.4709356413
C     1.1379058756     -0.6248225777     4.3202673704
C     0.5888399934     0.6632716442     4.1356087203
C     1.40762307     1.6702202918     3.4529728491
C     0.7562969728     2.7863079538     2.807951271
C     1.4497010114     3.5010787989     1.7455814761
C     -0.6896382612     2.9550762883     2.9162810349
C     -1.3214737118     3.8291683399     2.0078735853
C     0.3140486072     -1.8035909926     4.2877405838
C     -0.8687675159     0.7893845196     4.1837650859
C     -1.5102503854     1.9501652091     3.5876412952
C     -1.0517511308     -1.6886497422     4.279859471
C     -1.6467911281     -0.3863507375     4.3464576052
C     0.2364064068     -3.5424059852     2.5313204149
C     0.9529822699     -2.7902837341     3.4744697111
C     -1.8381908885     -2.535850784     3.4349786043
C     -1.2307292147     -3.4209082871     2.5277724817
C     -2.6818520064     3.6134135263     1.5769940703
C     -3.4223874506     2.6048538725     2.1379165818
C     -2.8774875236     1.8466808001     3.2247133241
C     -3.0453326145     -1.7963819799     3.0990002571
C     -2.9481024865     -0.5213335227     3.7463385308
C     -3.5542774331     0.5790558629     3.1969995155
C     -3.678087117     -1.9281125344     1.8541767685
C     -4.3329955434     -0.7460889228     1.2659640567
C     -4.2964914572     0.4622284907     1.9751004068
C     -1.7322009639     -4.3089106271     -1.0476722015
C     -1.2958295935     -4.3939904197     0.3081243954
C     -1.9962960234     -3.7545720523     1.3426626138
C     -2.8853745024     -3.6219410442     -1.3664336672
C     -3.6452833385     -2.9933000471     -0.332034337
C     -3.2215071156     -3.0173839158     1.007531819
C     0.6628935045     -2.8651038214     -3.4349351835
C     -0.5949620814     -3.347696833     -3.0252756083
C     -0.587917339     -4.222151456     -1.9119620468
C     -3.7704480509     -0.533715052     -2.9126205922
C     -2.6368289946     -0.2737599213     -3.7548973328
C     -1.5998471487     -1.1983848427     -3.913934225
C     -3.8874448949     -1.7579522028     -2.2864531225
C     -2.9309288305     -2.7879753821     -2.5556201146
C     -1.7740273783     -2.5391178181     -3.3235039327
C     -4.530202599     -0.6510078194     -0.1725051092
C     -4.4590323724     0.6533233828     -0.8568818698
C     -4.1142572353     0.6648977462     -2.2210348449
C     -4.2869877997     -1.8182136864     -0.9134235071


