100

 C     3.266334959     -1.160917503     -2.8911317331
C     2.6238582266     -2.3976149595     -2.7754499652
C     3.1378707677     -3.2638775329     -1.7690331881
C     2.2583113126     -4.223149292     -1.1466803712
C     1.0156894243     -4.4275135559     -1.6598913429
C     2.5682869866     -0.0050833665     -3.3901711619
C     1.1861236682     -0.007020435     -3.6439398588
C     0.477851715     -1.2875015696     -3.5681335705
C     1.2302788554     -2.4834732603     -3.2032398919
C     0.5111208404     -3.6078323208     -2.7564405924
C     -1.6752449656     -0.0097792313     -3.4968028033
C     -0.9581085293     -1.2891833565     -3.4915842756
C     -1.6630912335     -2.4827256917     -3.0397308097
C     -0.8971034922     -3.6037900272     -2.6684225398
C     -3.03163864     -0.0105309762     -3.1285487118
C     -1.6683276902     2.4648693779     -3.0489199691
C     0.5034989944     3.5956296452     -2.7698216025
C     1.2250371987     2.4711421342     -3.2124384299
C     0.4751446157     1.2722290951     -3.5728790534
C     -0.960817289     1.2711525748     -3.4963337744
C     -0.9047137681     3.5889293876     -2.6817854999
C     -2.4156112869     -4.1484578288     -0.8264574801
C     -0.0777846075     -4.7146365924     -0.7766124868
C     -1.2621869323     -4.4052489537     -1.505357597
C     -3.3734105794     -3.2363915136     -1.3798680788
C     -3.6825733276     -1.1695294635     -2.5681374907
C     -3.0044427036     -2.3983877068     -2.4681658188
C     -2.4024093322     -4.0146685326     0.6066189541
C     -1.1840522773     -3.9999523114     1.3202958596
C     0.0161762641     -4.4482642407     0.6217570495
C     1.3271925582     -4.1326284258     1.1557266551
C     2.4468387254     -4.1927464618     0.2797700103
C     3.6126481552     -3.3903257987     0.4881711785
C     1.4260329006     -3.2841974297     2.3352787762
C     2.6649077648     -2.6569716101     2.6004633674
C     3.7499467461     -2.6800432078     1.6527222847
C     0.3801732983     -1.4645115546     3.6772888344
C     -0.7633324461     -0.7298917136     3.991498493
C     -2.2545335664     -2.3281846443     2.8628107563
C     -1.0863972334     -3.1035031351     2.4770009162
C     0.2286109211     -2.7037123522     2.933550293
C     -2.0502447464     -1.1784391441     3.669395846
C     -3.5135800483     -3.1636058144     0.9354693669
C     -4.340559186     -1.1875048702     2.0339398733
C     -3.4842113349     -2.3429340944     2.0687705937
C     -4.6130520218     -0.7330173969     -1.5874035276
C     -4.7874709543     -1.4626049293     -0.3767760343
C     -4.1435137451     -2.7226803127     -0.2899907881
C     -4.9515549281     -0.7383835926     0.8380876909
C     3.8964550527     0.6966939337     2.7726533861
C     4.4282975444     -1.3982277288     1.6593690882
C     3.8979127965     -0.681104935     2.7752109958
C     1.627206996     -0.7288300866     3.7374523979
C     2.7665982249     -1.3978247432     3.2994828557
C     2.7636271244     1.4129627926     3.2942680941
C     1.6256506458     0.7431890256     3.7347220215
C     4.4253258649     1.4107784168     1.654154228
C     4.7817229882     0.738205799     0.4585868751
C     4.7832805455     -0.7293593252     0.4613103969
C     4.5529027209     -1.459161969     -0.7921869949
C     4.0282604625     -2.782737504     -0.7629210826
C     4.2525191592     -0.7208870467     -1.9581121533
C     3.7442595695     2.6911203971     1.6427515025
C     3.6054637491     3.3967713382     0.4755696944
C     4.0223672377     2.7854112413     -0.773259635
C     4.5498119225     1.4628487131     -0.7976127037
C     4.250994248     0.7196053551     -1.9607832061
C     -0.764891934     0.7401329109     3.9887737186
C     0.3770617331     1.4759996812     3.6718337296
C     1.419067566     3.2928909695     2.3230699799
C     2.6592712685     2.6692823684     2.5905799393
C     3.2638852995     1.1540711774     -2.8954269246
C     3.1309666757     3.2609137881     -1.7811491748
C     2.6187963927     2.3898274962     -2.7843386947
C     2.2493729922     4.2206261341     -1.1623654752
C     -0.0877575013     4.7085389527     -0.7941209617
C     1.0063253324     4.4204515448     -1.6763298568
C     -2.0527508342     1.1847454981     3.6650096753
C     -2.2594720185     2.331047102     2.8541577555
C     -1.092982712     3.10740061     2.46546938
C     0.2228761375     2.7121035569     2.9235036102
C     -2.410905373     4.0087975489     0.5917064201
C     -1.1925267623     3.9993217944     1.3054327652
C     0.0067552615     4.4475717705     0.6052300871
C     1.318434729     4.1367089825     1.1403656062
C     2.4379555615     4.1959341085     0.2641874558
C     -4.3430723458     1.1828642044     2.029531874
C     -4.0037231169     -0.0005649714     2.7829691471
C     -2.8894546272     0.0020692152     3.562350043
C     -3.5202731069     3.1566117876     0.9237179272
C     -3.4891740778     2.3402285754     2.0600669871
C     -4.6145854394     0.7143334547     -1.5900937439
C     -4.1492649395     2.7097989278     -0.3000904224
C     -4.7905554293     1.4480491108     -0.3821882138
C     -4.9531095212     0.7280054491     0.8353613551
C     -1.2714964366     4.3939215852     -1.5217076532
C     -2.4243867634     4.1372331317     -0.8418632944
C     -3.3802460667     3.2210812492     -1.3918719461
C     -3.009503452     2.3798206141     -2.4770482076
C     -3.6850313773     1.1491624922     -2.5724469995


