100

 C     -3.4469868048     -1.1619929658     2.6836997429
C     -2.7998165668     -2.3994212822     2.6124581636
C     -3.2494461965     -3.2673717001     1.5769983505
C     -2.3386237653     -4.2405094927     1.0250946866
C     -1.1365690858     -4.4557488326     1.6298615146
C     -2.7837034096     -0.0074458401     3.2298898127
C     -1.4188813849     -0.0090644114     3.5631078506
C     -0.7064395737     -1.2894489868     3.5286589253
C     -1.4364424667     -2.4853547881     3.1281027074
C     -0.6945376126     -3.618370946     2.7412226483
C     1.4463242188     -0.0103651712     3.5564649333
C     0.7325697094     -1.2901035667     3.5253234476
C     1.4596202438     -2.4866716678     3.1213905783
C     0.7149013446     -3.6190118897     2.7379561153
C     2.8095872612     -0.009985742     3.2169222579
C     1.4619016598     2.468463998     3.1360813455
C     -0.6912108964     3.6043876934     2.7626448102
C     -1.4341604225     2.4697787754     3.1427971011
C     -0.7052621512     1.2708446055     3.5362438691
C     0.7337487324     1.2701922834     3.5329083681
C     0.7182272431     3.6037469082     2.7593749378
C     2.3504373119     -4.2426399816     1.0142237235
C     0.0052243947     -4.7839392806     0.8315097277
C     1.1510101192     -4.4567950476     1.6245615379
C     3.2646966918     -3.2703342381     1.561896122
C     3.4692796453     -1.1651336653     2.6676620972
C     2.8206662129     -2.4019748429     2.5994273982
C     2.4347585041     -4.2222044348     -0.4228472192
C     1.256006432     -4.2010804826     -1.2130514658
C     0.0020555593     -4.5648585174     -0.576007518
C     -1.2545085965     -4.1999411887     -1.2072345649
C     -2.4295970523     -4.2199900404     -0.4115706814
C     -3.5671889431     -3.3971433741     -0.7071637557
C     -1.2457016506     -3.3265031993     -2.3822360653
C     -2.4364579802     -2.6608303442     -2.7265174747
C     -3.6046727737     -2.6805622554     -1.8738032811
C     3.5717121519     -3.4003962353     -0.7237143096
C     1.2425376473     -3.3276398524     -2.3880044206
C     -0.0024708422     -2.7663708145     -2.8777362754
C     3.6044313377     -2.6838506826     -1.8905180462
C     2.43228997     -2.6630535546     -2.7378029769
C     4.3881283996     -0.7255396018     1.6677819918
C     4.5983826065     -1.4631283805     0.4803211258
C     4.0765270821     -2.7876889279     0.491742888
C     -3.6083711951     0.6968153713     -2.9763602425
C     -4.2597794946     -1.3934491969     -1.9301383698
C     -3.6090044647     -0.6740706356     -2.9804292699
C     2.4223438404     -1.39506912     -3.4053064295
C     1.2245156831     -0.7244065637     -3.6891558781
C     -0.0033628507     -1.4634139912     -3.5179896535
C     -1.231346434     -0.7232834663     -3.683463973
C     -2.4284565546     -1.3928533664     -3.3940625571
C     -2.4271634697     1.4169509793     -3.3857325231
C     -1.2306696617     0.7480056187     -3.6791027294
C     -4.2584892141     1.410542768     -1.9218193558
C     -4.7171284855     0.7379217948     -0.7597995801
C     -4.7178071687     -0.7273223155     -0.7641460391
C     -4.5864961888     -1.4589479511     0.5016189572
C     -4.0657951752     -2.7839814771     0.5106219789
C     -4.3700645948     -0.7215576735     1.688090312
C     -3.6021909301     2.6966920441     -1.8578508901
C     -3.5640545846     3.4063002727     -0.6869800444
C     -4.0632290525     2.7863720901     0.5271479768
C     -4.5851516847     1.461895259     0.5102857252
C     -4.3694002878     0.7172697885     1.6923565302
C     -2.4339979152     2.6809486331     -2.7106747815
C     -1.2426227612     3.3434625729     -2.3624564118
C     0.0000960318     2.7851359576     -2.8612821353
C     2.423646597     1.4147326149     -3.396981312
C     -0.0019993921     1.4860018263     -3.5092544782
C     1.2251950804     0.7468797224     -3.6848002191
C     -3.4459197311     1.1509323492     2.6905588576
C     -3.2464379882     3.2626640175     1.5963702425
C     -2.7976138592     2.3881664436     2.6266589955
C     -2.3347167214     4.2382198109     1.0502486842
C     0.0096328118     4.7806270703     0.8598821825
C     -1.1324670062     4.4487570657     1.6562768155
C     3.6069148328     2.6934012539     -1.8745738886
C     2.4347624955     2.6787225562     -2.7219680486
C     1.2456221227     3.342324594     -2.3682273894
C     3.5748542411     3.4030407359     -0.7035398046
C     2.4386570806     4.2240998794     -0.3977960471
C     1.2598900046     4.2087624581     -1.1881095973
C     0.006271364     4.5699082513     -0.5489122989
C     -1.2506274215     4.2099065175     -1.1822863645
C     -2.4257024053     4.2263179115     -0.3865131546
C     3.6054516897     -0.6773663904     -2.9971571038
C     4.2617372563     1.4066540085     -1.9415801959
C     3.6060841138     0.6935186175     -2.9930920853
C     4.3887921077     0.7132875749     1.6720468375
C     4.0790937876     2.782662137     0.5082613427
C     4.5997295453     1.4577122529     0.488982455
C     4.7251534298     0.7336196732     -0.7816981772
C     4.724481069     -0.7316253288     -0.7860423316
C     4.2604414317     -1.3973355766     -1.9498936115
C     1.1551120668     4.4477159704     1.6509706835
C     2.3543462438     4.2360836604     1.0393711522
C     3.2677052139     3.2596992195     1.5812600547
C     2.8228731378     2.3856123647     2.6136244509
C     3.4703471109     1.1477913074     2.6745220135


