100

 C     3.1479163636     -3.3869927875     -1.1193402738
C     3.3422462761     -2.4533662766     -2.1534401263
C     4.3170714415     -1.452386799     -1.9002367637
C     4.2317686235     -0.1540220941     -2.5436782681
C     3.1900898856     0.092963375     -3.4092587018
C     1.9274105827     -4.1520760523     -1.0219063097
C     0.8276233449     -3.9220404537     -1.8715707684
C     0.9435699583     -2.862309685     -2.8764082616
C     2.2131124018     -2.1773317867     -3.0459832924
C     2.195950091     -0.9275604906     -3.6911257313
C     -1.5128380432     -2.7642691847     -2.9751860828
C     -0.2635651622     -2.2209600314     -3.3427384415
C     -1.6313306742     -3.7957433594     -2.0081007751
C     -0.4876658695     -4.3265296299     -1.3768217873
C     -0.6550418891     -4.7101900778     -0.0188167812
C     4.0046175845     2.1116962633     -1.5533171338
C     2.9145331794     2.3797226874     -2.4938085119
C     4.6674399061     0.8617891906     -1.6386677591
C     2.5570244825     1.3727174752     -3.4092703905
C     0.5272281253     3.2200201133     -2.748887532
C     1.883429012     3.3637105657     -2.1936999949
C     2.0337753364     4.1094408977     -1.0091711302
C     -0.5130803809     3.9566883483     -2.1793254508
C     -0.3294157385     4.6509394747     -0.9345107556
C     0.9011935561     4.6470360206     -0.3282571303
C     -0.2794282834     -0.832342334     -3.7652299781
C     0.9747403143     -0.2462480711     -3.9738471075
C     1.1790915483     1.1558655754     -3.8083236718
C     -1.2217541367     1.4573312613     -3.3877663839
C     0.1353350775     2.0050341296     -3.4505663307
C     -1.4249470303     0.0381171981     -3.5529369435
C     5.1299309365     0.1631597624     -0.4543768383
C     2.9934685285     3.7189947807     0.0025728091
C     3.9862734135     2.7571342517     -0.2460115427
C     4.482783428     2.0718535641     0.903145061
C     5.0256982903     0.7394145514     0.7869570565
C     1.0078368608     4.332552906     1.0697617222
C     2.3399387577     3.8228403728     1.2701394085
C     2.6238003019     2.932784128     2.3178572527
C     3.7997619656     2.1497997919     2.155405295
C     -0.1071136053     3.8627673251     1.7971096332
C     0.1255851433     2.8392615521     2.8204007283
C     1.4978272576     2.4373494927     3.1135087633
C     -2.3216372659     2.251378463     2.7214564591
C     -0.9716918478     1.9878872405     3.2052810065
C     -3.2909311026     1.2317672507     2.8911967288
C     -2.5587159854     3.2630217016     1.7094845726
C     -1.4297843473     4.0198327181     1.1948870081
C     -3.7177218675     3.1311533642     0.8866616804
C     -1.5030217305     4.4922775658     -0.1431044984
C     2.89337782     0.4104433298     3.5903940136
C     4.6143200266     -0.0473754036     1.9386382849
C     3.9261403274     0.8600544243     2.7983119386
C     0.632476473     0.326073801     4.0197611565
C     1.7043065111     1.2177547294     3.7864374476
C     -0.6909696995     0.6659006725     3.743271916
C     2.521291456     -0.9670033818     3.5590724232
C     3.1217564125     -1.8802310976     2.6704838385
C     4.2064306877     -1.3982746579     1.811997326
C     4.4148316522     -2.0283358301     0.5126599724
C     4.8636253096     -1.2516935056     -0.6003578393
C     3.6496774756     -3.1605790239     0.195572486
C     0.9170746986     -3.1591101975     2.7467173358
C     2.3159058731     -3.0379028701     2.2924859749
C     2.6855802719     -3.7302760572     1.1277976186
C     0.0608999366     -4.0385111599     2.0778881078
C     0.4575890944     -4.6826783736     0.863423171
C     1.731408502     -4.4692467154     0.3634316682
C     1.1091049848     -1.0287248705     3.8825971013
C     -2.9240992964     -0.1173061564     3.2486061941
C     -1.6100686503     -0.4428464813     3.5917175587
C     -1.1489080901     -1.7951077954     3.3664471811
C     0.2812497106     -2.0636359364     3.4660170403
C     -1.9934258582     -2.6981170015     2.6245530773
C     -1.3705099699     -3.8002132605     1.9905019984
C     -4.7532836554     -0.2720897756     1.8468681527
C     -3.7882113879     -1.0422834385     2.5811181436
C     -3.2922993812     -2.2812336859     2.1212912617
C     -5.1711782289     -0.7211572497     0.605606922
C     -4.6880689328     -1.9784175162     0.1068797368
C     -3.7885196022     -2.7918207805     0.8451286061
C     -4.996879858     1.5586274434     -0.2954477217
C     -4.6376396773     2.0469187298     1.0344898899
C     -4.4568100495     1.1342644167     2.0576243905
C     -5.2357626384     0.2194372988     -0.5050146768
C     -2.5168418948     3.998468314     -1.0371695931
C     -4.2277867072     2.2967467068     -1.2537330644
C     -3.6184825992     3.3793924539     -0.5296263858
C     -3.5874625208     -2.5760314308     -1.9927882305
C     -2.7047997299     -1.9624354947     -2.9536745756
C     -2.683880802     -0.564518258     -3.1363733802
C     -4.5104015782     -1.8162365933     -1.3171285902
C     -4.6727331709     -0.4259292662     -1.6589382282
C     -3.7315760768     0.2345788632     -2.50149679
C     -3.5110512693     1.6518337654     -2.3014860801
C     -2.2664738643     2.2607530298     -2.7773030964
C     -1.8841126598     3.5045798456     -2.2296054579
C     -1.8214126351     -4.276208149     0.7323746744
C     -2.9568456596     -3.7203163779     0.093572174
C     -2.8897880947     -3.6221042766     -1.3188288089


