100

 C     4.0850865941     2.7499120464     0.241056579
C     4.5566687265     1.5025314102     0.6499605771
C     5.0319194152     0.6591155191     -0.3907703103
C     5.2222602436     -0.7391823498     -0.1788737529
C     4.949292241     -1.2748445053     1.0693869964
C     3.166541791     3.4963385949     1.0507476872
C     1.1295016463     3.3619218069     2.4208705972
C     2.4374574476     2.8472800391     2.0852421039
C     2.7898232926     1.481259372     2.4471495623
C     3.9801144528     0.9023553621     1.8481128085
C     4.2531113168     -0.4588978372     2.0605800528
C     -1.1865119646     2.8892319977     3.0893716417
C     0.1597138795     2.4794170828     3.0703938853
C     1.7984805865     0.6058464798     3.045666201
C     2.4777866117     -3.5272991787     2.3021843296
C     4.4626254264     -2.6287396421     1.181566444
C     3.5353186076     -2.6534202981     2.2963259961
C     0.4381136111     1.0716744795     3.2733094579
C     2.0586227057     -0.8106312082     3.1467527175
C     3.3346671131     -1.2938936071     2.7548364958
C     1.2018178191     -3.1024341465     2.8238572969
C     -0.6611964663     0.1205328809     3.3800318783
C     0.9513999705     -1.759546655     3.2099548439
C     2.2325182951     -4.3884999157     1.1606099453
C     3.0053535749     -4.2230765441     0.0107556281
C     4.1637717724     -3.3626981643     0.0299681538
C     4.2281839581     -2.6997699391     -1.2637842862
C     4.7759647919     -1.4374550715     -1.372726106
C     0.8235634975     -4.5619611658     1.0501060228
C     2.3275659024     -4.0289604033     -1.2446671693
C     0.9483506034     -4.1657252629     -1.3643449913
C     0.1747808211     -4.5597130021     -0.1943536948
C     -3.2496303138     -3.4979873211     0.9261109542
C     -1.9346183259     -3.9453339912     1.0199822901
C     -1.2575214442     -4.3950644666     -0.1893362264
C     -1.8772953716     -4.1390357141     -1.4223586001
C     -2.257654379     1.962173132     3.2218551607
C     -2.0362279307     0.5752891437     3.3163647438
C     -0.4124149847     -1.3004813712     3.2189942116
C     -3.1255177648     -0.3158054551     2.9072483517
C     -2.8293505472     -1.6979205551     2.6069131194
C     -1.474630076     -2.1812281186     2.7694172581
C     -1.1228947828     -3.4129941317     2.1015321052
C     0.197570636     -3.8470074649     2.1556015487
C     -3.7230007217     -2.4337150963     1.7833023677
C     1.6943850157     2.8862710532     -2.946867174
C     2.5841700403     1.8000054618     -2.8972147835
C     2.9244218207     -0.6882900401     -2.859102712
C     4.1837027935     -0.4632147482     -2.2429077343
C     3.0358837622     -3.0102137801     -1.994256741
C     -1.0910038099     -3.494700843     -2.4716841383
C     0.2890971713     -3.3744365089     -2.38854862
C     0.919029862     -2.1899415815     -2.9397202472
C     2.337317667     -2.00941596     -2.7251129934
C     -1.8976551314     -2.4873676416     -3.0657391723
C     -1.3460163119     -1.2158792075     -3.3529602955
C     0.0945010671     -1.0741027311     -3.3242593842
C     0.6655685993     0.2624649143     -3.3750330286
C     2.0765574304     0.458867833     -3.1686057107
C     -0.2419116323     1.3986546771     -3.2917894131
C     0.2953508699     2.6768923343     -3.1149338764
C     3.7693552205     1.9709577461     -2.0666730636
C     4.5026184615     0.8349898953     -1.710708744
C     1.8611950681     4.072891782     -2.1272120533
C     2.871000163     4.1098472752     -1.177972916
C     3.8220515184     3.0473609885     -1.1397856716
C     0.5452458796     4.5745246346     -1.8013164288
C     2.5447195629     4.4672504385     0.1920857609
C     1.2950563821     4.9459658627     0.5022105666
C     0.2788647626     5.0835176748     -0.5357500205
C     -0.4283564184     3.7165416523     -2.4189859689
C     -1.6844692558     3.4653853062     -1.8484769197
C     -2.3696438429     2.2573023255     -2.2626428157
C     -3.5645246674     -0.2502885724     -2.7973862804
C     -2.2254441572     -0.0587341642     -3.1946159817
C     -1.6557927756     1.2448607291     -3.0086927679
C     0.645900619     4.4917121169     1.6965287505
C     -0.7621374259     4.6640233691     1.4764612
C     -2.9000932671     3.5619613107     1.650711415
C     -1.6487766714     3.953159265     2.2222093196
C     -5.1170340879     -0.0050890669     -1.0781498572
C     -4.2381945537     0.715765164     -1.9778185982
C     -3.6193315821     1.9268449717     -1.6141569058
C     -5.2644635135     0.4656797781     0.2152437037
C     -4.7303302435     1.7458477659     0.5755787882
C     -3.9499711156     2.5233196465     -0.3194179646
C     -3.0709054893     3.5331436159     0.2418200365
C     -2.021492184     4.1105065226     -0.5816927438
C     -1.0035867355     4.8612802834     0.0601667425
C     -3.2416138932     -2.6488160655     -2.5613078522
C     -4.9746558598     -1.4202228056     -1.3301886443
C     -4.0755277449     -1.5587763785     -2.4573199673
C     -5.0515821504     -0.4512927327     1.3300986646
C     -4.8046273795     -1.7869095972     1.0905200469
C     -4.8702518015     -2.3169806893     -0.261348326
C     -3.9393224892     -3.4134782409     -0.3359449664
C     -3.2071234582     -3.6407732407     -1.5044838016
C     -3.3699984431     2.4764793696     2.451890656
C     -4.3150819646     1.6340356344     1.9549067832
C     -4.2978259586     0.2466164331     2.3295379733


