100

 C     -3.4465073323     -3.0780136087     -0.2680238628
C     -4.4986518065     -2.1454426878     -0.1991966
C     -4.9087840043     -1.5572234249     1.0448024264
C     -2.7432856535     -3.4462557943     0.9616568722
C     -3.1162431631     -2.7899768793     2.1469822864
C     -4.1864997208     -1.8452458372     2.1970817221
C     -0.9526169124     -4.4441534108     -0.3481815977
C     -1.403477627     -4.0167122058     0.9041503628
C     0.98956883     -3.9746284955     1.6862147382
C     -0.4030241339     -3.7156352135     1.9331696262
C     -0.7512846416     -2.727192197     2.9251846478
C     -2.0859665474     -2.3334230312     3.050839605
C     1.9433438306     -3.3045184583     2.5004667727
C     0.4529253671     -4.5821782779     -0.6298794134
C     2.7218429064     -4.0264278311     -0.0897883735
C     1.428347556     -4.4043872468     0.3689413866
C     -5.0034534549     0.8250616464     1.6656595908
C     -4.1303369317     0.5368314227     2.7877978853
C     -5.3611126851     -0.2029160387     0.7925872619
C     -3.7682799502     -0.7610255958     3.0674761513
C     -2.4337116082     -1.0397038628     3.5243384257
C     -1.447159034     -0.0140328059     3.6393823497
C     0.2347151762     -1.8204595451     3.4659383894
C     1.5634584625     -2.2139487286     3.3215077563
C     -4.9626959685     1.2693882262     -1.1338364427
C     -4.6680488876     2.3532335736     -0.2178012686
C     -5.2767634314     0.0132832453     -0.6390880233
C     -4.6114095235     2.1158542296     1.1465893958
C     -1.5648624229     4.2891951612     -0.7351431389
C     -3.6717421114     3.1894472342     -0.8193611821
C     -2.6676520087     3.813095453     -0.0289855496
C     -0.0807760166     -0.4136938902     3.6749897685
C     -1.7985773837     1.3425230637     3.2603742534
C     -3.1441763083     1.5945112914     2.886301094
C     -3.4615888834     2.5811131595     1.914440759
C     0.955381157     0.5876245608     3.5359919346
C     0.6194007086     1.916354843     3.0723625848
C     -0.767640314     2.2635048639     2.8305656441
C     -1.1102428506     3.3265851533     1.8974197497
C     -2.4571589725     3.3934017593     1.3516176364
C     -0.0495546427     4.0317587204     1.206254223
C     -0.3349222803     4.5609175568     -0.0804022327
C     -3.7935812719     -1.0460432557     -2.3258795152
C     -3.4335117244     0.2844456045     -2.8263363564
C     -4.6955162066     -1.1496437905     -1.2442432342
C     -4.0625625209     1.3973314984     -2.2457403722
C     -3.3316641813     2.6288045346     -2.091524409
C     -1.2714451974     3.8297811549     -2.0717966851
C     -2.0438058219     2.8160407533     -2.6553080358
C     -1.3725630688     1.7277875291     -3.3285774622
C     -2.1284402413     0.491020218     -3.464220849
C     -1.426501531     -0.6469405403     -3.8343206131
C     -1.852065191     -1.9790194098     -3.4631394534
C     -2.9109680906     -2.1711141743     -2.5539021688
C     -2.7686422373     -3.2135848841     -1.5410988172
C     -0.6922292466     -2.8000146378     -3.451690616
C     -0.598584729     -3.8440444627     -2.5501611658
C     -1.6190393274     -4.0210901326     -1.5652963467
C     2.8964829445     -3.4938092807     -1.3951589616
C     0.6795925715     -4.1565168227     -1.978812149
C     1.845790028     -3.4219628975     -2.3239904178
C     0.4693142436     -1.9782257561     -3.7350789987
C     2.6168717771     -1.0892973145     -2.9837814695
C     1.7200701077     -2.2216573826     -3.1644071251
C     4.5152492982     -0.1742790112     -1.6875094628
C     3.7870617381     -1.2908566504     -2.1398549723
C     3.9085132815     -2.4583021409     -1.341298801
C     0.7824301301     0.4805822575     -3.6681024764
C     0.0020265204     -0.647735072     -3.9637437838
C     2.834011335     3.5783662876     -1.6088620408
C     2.2631280435     2.6840667754     -2.5594946614
C     2.9224803167     1.3987785148     -2.7560667892
C     2.159153031     0.2575550833     -3.2502801021
C     4.1324353993     1.1579267767     -2.0660317675
C     0.0790104847     1.7282392366     -3.4197620149
C     0.1345112084     3.890607928     -2.2634693206
C     0.8436068484     2.8420892347     -2.8884745189
C     5.1610636113     1.2404959004     0.0315661141
C     5.136246619     -0.1393814529     -0.3911441085
C     4.9405865127     -1.1955222279     0.528376493
C     4.4425903187     -2.4071552849     -0.0250354116
C     4.8436389514     1.5657437595     1.3439824893
C     3.6395383269     3.5728555471     0.5905402845
C     3.9518471071     3.2145651187     -0.7883244982
C     4.6327823124     2.0476254983     -1.0517024545
C     4.0043967495     2.7163482414     1.6120753175
C     0.6746057877     4.5442764471     -1.1009391203
C     2.3461232814     4.1741883122     0.6119485751
C     1.9758903933     4.3731306999     -0.7694285993
C     2.6307231249     -1.2492754765     3.3776351794
C     2.3337969008     0.131880717     3.4763399913
C     3.3407335946     0.9953352199     3.0089441527
C     3.0161346477     2.3302633099     2.5826295974
C     1.6748950556     2.7736341053     2.5293062112
C     1.3423303227     3.800145836     1.553363269
C     3.664362775     -3.3413135859     0.7652453296
C     3.2880845252     -3.0096562849     2.0452137623
C     4.5773981758     -0.8564929379     1.9070658743
C     3.7192740569     -1.7421689923     2.6123758419
C     4.4647713478     0.5123016625     2.2585240282


