100

 C     4.7949558289     1.7152929868     0.8471242338
C     4.1902887395     1.8524983937     2.1747446084
C     5.1525510001     0.4721036401     0.3724316651
C     3.9203154852     0.7126984696     2.9122803145
C     2.6508148014     0.5851385878     3.5589420794
C     1.6436126728     1.5784883348     3.4677931744
C     0.0018945235     -0.2281267079     3.9330675986
C     -1.3252089304     -0.6690707326     3.991880558
C     -1.2103816335     -3.8791413882     2.1746542399
C     -0.7442934708     -2.907447703     3.0882027247
C     0.6517508976     -2.5303688363     3.0573740399
C     1.0026393252     -1.2458267087     3.6472224981
C     2.311099863     -0.8176890429     3.5388397893
C     -1.69925308     -2.0077794769     3.6199040924
C     2.3016259783     4.168983479     0.2709092529
C     4.1580225828     2.6458622068     -0.0331399079
C     3.3418612821     3.4856351901     0.8075531305
C     0.2737933255     1.1756140491     3.6938686751
C     1.9393490731     2.7928969091     2.7329619808
C     3.221876627     2.9002482701     2.1221423442
C     1.0908885143     4.3503349671     1.0234278262
C     -0.8179094699     2.056956466     3.3076147451
C     0.8352875117     3.5720117875     2.1841732905
C     1.9703647578     4.0163105993     -1.1245206886
C     2.5352577397     2.9662099393     -1.8912906711
C     3.7029553811     2.2770908462     -1.3334642941
C     4.0579427592     0.9631560025     -1.8246080139
C     4.8608326215     0.1312828708     -0.9897530684
C     4.7100179775     -1.2988750987     -1.0191112939
C     3.2133161782     0.3305129037     -2.8388450979
C     3.3047442426     -1.0694940159     -2.9972877693
C     4.001207374     -1.8822225845     -2.0273816005
C     0.9631728261     0.1474414314     -3.9046177903
C     -0.3064261158     0.7035861082     -4.1129812687
C     0.3575305162     2.864025816     -3.1387359854
C     1.6907913848     2.3291423079     -2.896629989
C     2.0095640844     0.9808099195     -3.3303783616
C     -0.5843835959     2.0544126101     -3.8158937977
C     0.6071411299     4.4016450724     -1.2464274483
C     -1.5988804328     3.9964658478     -2.0544584604
C     -0.1999288651     3.9092561417     -2.2845270369
C     -1.2782484585     4.4203687321     0.3766648691
C     0.0715041113     4.6330470073     0.0740088159
C     -2.1368170802     4.2778556621     -0.7531107084
C     -2.4136544885     0.2031172594     3.7619490536
C     -2.1762683125     1.5487002003     3.3795825407
C     -0.5411257042     3.223383694     2.4835621206
C     -3.1924977116     2.1535006325     2.6016502935
C     -2.9031975031     3.2417801208     1.7512487877
C     -1.6032721138     3.7810640597     1.6451764329
C     1.1103397529     -3.8450147205     -2.6008719199
C     3.2472709242     -3.0737349335     -1.76818695
C     2.2617141203     -3.1405053926     -2.8048800608
C     1.0052043421     -1.2995029502     -3.8676233362
C     2.2207003225     -1.8723300264     -3.4902611053
C     -0.1374220021     -3.3548545356     -3.1166102325
C     -0.2291584118     -2.0822527221     -3.6921572332
C     0.8724874472     -4.479248855     -1.327745418
C     1.6850151458     -4.1685643687     -0.2024450867
C     2.9414476462     -3.471894294     -0.4397950741
C     3.592252321     -2.7622327794     0.6532494016
C     4.5985582914     -1.8116499552     0.3269178012
C     4.9390718313     -0.717931021     1.1908846008
C     2.8852002127     -2.599399363     1.92279191
C     3.2815161722     -1.5327516784     2.7663181509
C     4.3104015712     -0.5961532925     2.4144195344
C     -0.5448183     -4.6305431968     -1.2230320105
C     1.027179714     -4.0641430765     1.1016001863
C     1.5580012919     -3.1483666669     2.1165334992
C     -1.1274680134     -4.7024741827     0.0199968532
C     -0.3247801963     -4.4347006579     1.1930342827
C     -1.5290055063     -0.0680171602     -3.965548842
C     -1.5124769397     -1.4144567032     -3.5924399204
C     -2.3905159181     -3.1735358326     -2.0470873439
C     -1.1869657993     -3.8690108221     -2.2753755305
C     -3.5912646437     -0.9804124618     -2.2744913124
C     -2.5910906305     -1.9134203049     -2.7542880974
C     -4.3245438003     -1.327780232     -1.1038777052
C     -4.0630498554     -2.5090743906     -0.3633395791
C     -3.0864974173     -3.4402751705     -0.7920622808
C     -2.4417471836     -4.1990131175     0.2235590841
C     -3.5860203989     2.7573658     -1.8192212969
C     -2.5106386505     3.0967164045     -2.71257505
C     -2.0064997091     2.1494834689     -3.5645895604
C     -4.1010987815     1.4541823798     -1.7286843739
C     -3.5537528559     0.4267314414     -2.6348078401
C     -2.5647988925     0.8242149401     -3.5575287983
C     -4.5236274997     1.9050450487     0.6975036694
C     -3.7814505796     3.1281342719     0.596792589
C     -3.3819414626     3.5814868948     -0.6325850911
C     -4.8309693759     -0.3238048312     -0.1874025773
C     -4.6721460002     1.0511142237     -0.4393578423
C     -3.4875082087     -0.5865397479     3.2145718484
C     -4.7540475384     -0.8658788829     1.1323240472
C     -4.3486997862     -0.0428346742     2.2287426329
C     -4.2330043316     1.3486618316     1.9786709375
C     -2.5172609689     -3.769712761     1.600560445
C     -4.286963075     -2.2194556405     1.0310386522
C     -3.4362771379     -2.7692427404     2.0244185302
C     -3.0372053862     -1.94757979     3.1223602893


