100

 C     -2.6357240395     -0.6843491754     -3.6831276107
C     -2.9692954504     -1.8721458127     -2.9969637558
C     -4.0704271773     -1.7606791165     -2.1066797334
C     -4.1458579367     -2.5921874971     -0.9255023965
C     -3.1822157032     -3.5444690537     -0.713024839
C     -1.3109854379     -0.4842527114     -4.1962192681
C     1.0245735616     -0.9548092388     -4.1532652331
C     -0.2921010096     -1.4433534682     -4.0146505002
C     -0.5332185738     -2.629166795     -3.2116385603
C     -1.9101405378     -2.8680315728     -2.7514754585
C     -2.1058821163     -3.7329284448     -1.6638202109
C     -4.068818395     -1.9210396923     1.462703895
C     -2.9937164699     -2.8979861269     1.6800857018
C     -4.6556907611     -1.8374759435     0.1736053079
C     -2.6566215455     -3.738700456     0.6040950556
C     -1.3256898852     -4.2596772546     0.4535162504
C     0.992528812     -4.254547795     0.9793844678
C     -0.3327923071     -4.0679527531     1.4286357976
C     -0.5956774885     -3.2185720153     2.5715304963
C     -1.9593371558     -2.6691316008     2.7044768425
C     -2.1403753642     -1.5692021502     3.545182299
C     2.1357070543     -1.6039459612     -3.5336181955
C     1.9542770757     -2.6956876132     -2.6823935672
C     0.5904202349     -3.2433427958     -2.5441835235
C     0.327241567     -4.0816189238     -1.3931842505
C     -0.9981433827     -4.2634128511     -0.942162392
C     1.3200730138     -4.2643266296     -0.4162680677
C     -5.0737119442     -0.5670698157     -0.3850188785
C     -3.1747949087     -0.5800552507     3.3163359373
C     -4.1252686461     -0.7198153999     2.2857367137
C     -4.645228333     0.4949539015     1.7594970951
C     -5.0737665603     0.5695045172     0.378031053
C     -1.3135693409     0.4853577181     4.19169338
C     -2.6378984226     0.6859200257     3.6777330743
C     -2.970599244     1.8738367692     2.9913534153
C     -4.0711856955     1.7627598158     2.1003504735
C     1.0221828333     0.9550860318     4.1502645246
C     -0.2942263866     1.4440953078     4.0107885963
C     0.2874855904     -1.4048623265     4.0246536249
C     -1.0290106367     -0.914540402     4.1585699073
C     4.0657012241     -1.7418429595     2.119830395
C     2.9645292345     -1.8443609788     3.0111378852
C     2.6313789418     -0.6499126726     3.6858675481
C     1.3067122199     -0.4444240707     4.19700718
C     0.5281815033     -2.5984149316     3.2330622457
C     2.1004539202     -3.7175492169     1.6959164734
C     1.9050167203     -2.8421802999     2.7752181882
C     -3.18142494     3.5462322022     0.7072760972
C     -4.6549233662     1.8397604134     -0.1803170847
C     -4.1455461627     2.5942978448     0.9191237706
C     -1.9109293597     2.8693478482     2.7465571653
C     -2.1056517622     3.7343169036     1.6587745505
C     -0.5343953158     2.629995128     3.2076194599
C     -2.6549029531     3.7402821414     -0.6094984591
C     -2.9915846301     2.8996832353     -1.6857061022
C     -4.0671744381     1.9231175474     -1.4690302208
C     -4.1235055151     0.7219147425     -2.2921002156
C     -4.644242396     -0.4926709931     -1.766202407
C     -3.1724084109     0.5818176982     -3.322081751
C     -1.3238843226     4.260789384     -0.4580530485
C     0.994677123     4.2548333126     -0.9824002178
C     -0.3304157106     4.0687096157     -1.4325198833
C     -0.5928495383     3.2194181517     -2.5755851404
C     -1.9566159648     2.6704619911     -2.709421017
C     -2.1374879946     1.5705961619     -3.5502459537
C     2.1339523782     1.6038302975     3.5313462466
C     1.9534700345     2.6956351331     2.6800024954
C     0.5898988059     3.2437724444     2.5408991071
C     0.3277713366     4.0821423763     1.3897304936
C     -0.9972523335     4.2644107702     0.9378427322
C     1.3213084777     4.2644987103     0.4134646108
C     2.102882749     3.7174437165     -1.6982070158
C     1.9078439501     2.8421444575     -2.7776351028
C     0.5312228289     2.5988646614     -3.2363804865
C     0.2906286514     1.4053966029     -4.0281325711
C     -1.0259526906     0.9155421101     -4.1629073972
C     1.3096293436     0.4446007841     -4.1998228867
C     3.1785918226     3.5381245082     -0.7449427574
C     4.1423684275     2.5838517407     -0.9476388466
C     4.0677062873     1.7410428256     -2.1208309857
C     2.9671584474     1.8439511689     -3.0128638486
C     2.6340322964     0.649620379     -3.6878133586
C     4.0637594568     1.9356629745     1.4468491764
C     2.9885222209     2.9146464732     1.6541376624
C     2.6521378094     3.7449945676     0.5699046752
C     4.6514761107     1.8397263513     0.1589949054
C     5.0694068577     -0.565176169     0.3867900334
C     4.639969958     -0.4773674113     1.7671961028
C     4.1196660352     0.7423961946     2.2814116985
C     3.1685186681     0.6125353889     3.3126873545
C     5.0698639087     0.5640201872     -0.3871351953
C     3.1768497498     -3.5386065363     0.7433582988
C     4.6509334232     -1.8407364272     -0.1596134837
C     4.1408370972     -2.5846834576     0.9466884926
C     3.1704800563     -0.6130158623     -3.3142781585
C     4.6412986816     0.4763630374     -1.7678223388
C     4.1209028372     -0.7432147814     -2.2823789255
C     4.0640248852     -1.9364629843     -1.4478541665
C     2.9885759765     -2.9150659607     -1.6558480472
C     2.6511884613     -3.7452939136     -0.571835439


