100

 C     -3.8311861508     2.4233701678     -2.1576487518
C     -2.7421137956     2.4521871189     -3.1103981897
C     -4.6017174437     1.2734501967     -2.0135048208
C     -2.4305000215     1.3161736591     -3.8368441893
C     -1.0557564229     0.9589732043     -4.029733566
C     2.3590862549     1.9139370282     -2.8616240612
C     3.6098432895     1.2929526246     -2.7001045213
C     1.291388323     1.1216053161     -3.4269713807
C     0.0030442181     1.7493833833     -3.5599117215
C     -0.3169954639     2.9484727158     -2.7861069935
C     -1.6783606822     3.2446399381     -2.557585491
C     0.2096612684     -1.1205249807     -3.607480451
C     -0.9664373301     -0.4753624926     -3.9691727513
C     3.6749552578     -2.7128584203     -1.7647742038
C     2.6101687223     -2.3191904715     -2.6151054461
C     2.6437794312     -0.9562475762     -3.1285541998
C     1.4129836357     -0.3137354474     -3.5126304849
C     3.754331376     -0.1335770553     -2.8438702574
C     0.1023303505     -2.4227465137     -2.9728835501
C     1.2121423861     -4.0657538801     -1.5642597854
C     1.3276849226     -3.0249778476     -2.5044248248
C     -4.6281381219     1.5601358493     0.4553501908
C     -3.7790706252     2.7467396706     0.3034612919
C     -5.0338607315     0.8708297383     -0.7167194467
C     -3.427184688     3.1545150423     -0.9981086587
C     -1.6551576733     3.9142085693     1.0993806547
C     -2.9022204709     3.1844293813     1.3895141583
C     -2.9842298956     2.4912162253     2.6103389312
C     -0.6683931546     3.9698459038     2.0910448117
C     -0.7332435951     3.1355826702     3.253913892
C     -1.8554982381     2.3833848068     3.4826941559
C     -2.1152469642     3.7290476743     -1.2836988784
C     0.204774507     4.0892066142     -0.6385861903
C     -1.2072990118     4.0661608703     -0.2872072147
C     2.5216491644     3.9633994293     0.1952173552
C     1.1647753147     4.2469267563     0.4277200816
C     0.7260973152     4.1201101971     1.7631377416
C     2.0393197343     3.0920660044     -2.0514399743
C     0.649503677     3.4909220217     -1.8743254328
C     2.9816181497     3.4983697838     -1.0896465297
C     -5.1056420217     -0.5861725581     -0.736224231
C     -3.722243881     1.2510580438     2.7264852937
C     -4.5509018017     0.7831682939     1.6932521271
C     -4.767416993     -0.6236991612     1.6769183864
C     -5.0000218828     -1.307888117     0.4186001249
C     -2.9385646376     0.3599948784     3.5261482752
C     -2.7121438603     -3.4865458289     1.9931708247
C     -4.3033257644     -2.561635124     0.4162069552
C     -3.8192743655     -2.7283629975     1.7579757366
C     0.2115884794     -4.6826740069     0.415526882
C     -0.7556682431     -4.4417102569     1.3349744238
C     -1.7196691032     1.0278273961     3.9100736515
C     -2.9613155956     -1.0231553077     3.340672113
C     -4.0069362267     -1.5030660486     2.4976169017
C     -0.451314203     -3.6382086896     2.5078938104
C     0.5585526593     2.5804408355     3.4924988886
C     0.7321435538     1.191831212     3.7083901451
C     -0.4621531659     0.3788933852     3.9055612267
C     -0.4227472388     -1.0557130644     3.6513955774
C     -1.69605368     -1.7544396176     3.4717987954
C     -1.6653261158     -3.0410629423     2.9143513821
C     0.8008022498     -2.9908491472     2.6460307684
C     0.8216858591     -1.6607670615     3.2313584284
C     -2.0890841673     -4.1693891997     0.9019817491
C     -2.3709936078     -3.8162225418     -0.4492977668
C     -3.5217273767     -2.9733989697     -0.699240242
C     -3.5698487933     -2.1672082327     -1.9106483046
C     -4.4797081151     -1.073545327     -1.944001347
C     -4.2615503896     0.0772761082     -2.7740657388
C     -2.3957163749     -2.1135506485     -2.7885112418
C     -2.263832453     -1.0060556396     -3.6491553391
C     -3.1863776319     0.0961946704     -3.6388448045
C     -0.0450351358     -4.4144686642     -0.9856279448
C     -1.193524797     -2.87369934     -2.4871066986
C     -1.2552146536     -3.8345577643     -1.4003981584
C     3.0448674741     1.4466644224     2.773058826
C     1.9879973384     0.5787907748     3.2973421967
C     2.0402229151     -0.8429104858     3.0738432452
C     4.1717294587     0.8595592464     2.1841899271
C     4.2605943395     -0.5520193144     2.0168963531
C     3.1957158075     -1.4135172894     2.3897721078
C     3.0997427927     -2.6903563884     1.6868019704
C     1.8839777758     -3.4620033386     1.7906021761
C     1.5655472654     -4.3487770691     0.7246930638
C     4.4212817093     2.6803359496     0.5442577453
C     3.3473695777     3.3629162488     1.200219763
C     2.737980087     2.8149533642     2.3606015082
C     1.4807771785     3.3285167172     2.6778828382
C     4.8979120829     1.4993800848     1.0847185458
C     5.240106828     0.587525975     -1.1739152626
C     4.5626446149     1.7416711254     -1.7121674957
C     4.2192466325     2.797021087     -0.8862417414
C     5.3894066536     0.4624702519     0.2161886813
C     4.8588743433     -1.9217731858     0.0880176575
C     4.7055641546     -1.8005323167     -1.3574721325
C     4.8024302056     -0.5562773497     -1.9452245335
C     5.0922808519     -0.8018851364     0.8514728101
C     2.218509691     -4.2172600615     -0.5376357313
C     3.9365236263     -2.9110294662     0.5574085984
C     3.3938392526     -3.5388702875     -0.6184130647


