100

 C     2.1336821958     2.5758618055     -3.0048214209
C     2.9149835109     1.4195432612     -2.871284611
C     3.0249062618     -1.0666563707     -2.8109628035
C     4.2431717249     -0.9426422744     -2.0838506203
C     4.6811105542     -1.9441523223     -1.1506791087
C     3.9641405819     -3.1104502752     -1.0352765931
C     0.8881604722     0.0688781958     -3.5350369096
C     2.3059029901     0.1394489652     -3.1984989756
C     0.9051673043     -2.3904881937     -3.1049942134
C     2.3243328708     -2.3315127665     -2.754281115
C     2.8642580539     -3.3507038104     -1.9121847106
C     0.1791646618     -3.5226012748     -2.6472958223
C     0.6919320153     -4.3385967451     -1.5735537041
C     1.9797307382     -4.2267318467     -1.1917481885
C     0.1654232666     -1.1938102601     -3.4538820994
C     -1.2988657215     -1.1941140733     -3.3794388384
C     0.7836827738     2.5144839242     -3.4165724718
C     -1.9964449737     2.4772256015     -3.0995362319
C     -1.3471007212     1.2802245815     -3.5166535339
C     0.1118995678     1.285867046     -3.6394778811
C     4.8173117253     -1.7239034409     1.293437051
C     3.9609403252     -2.8915616778     1.4133647003
C     5.1929580681     -1.2711262386     0.0339791995
C     3.6137395615     -3.6254989135     0.2945109907
C     2.3249587401     -4.2152936998     0.2160087544
C     3.6558460493     1.447518521     2.8259756065
C     4.5430823355     0.6300918363     2.0851408177
C     4.4169745304     -0.7720028046     2.2974329833
C     3.2691654289     -1.3237392411     2.9623089926
C     0.5467054012     -2.2648522037     2.8813126247
C     0.874113043     -0.9699258807     3.4730257696
C     2.2492641623     -0.5073162254     3.4835907225
C     2.5377149937     0.8820677277     3.5148039772
C     -3.2086517648     -1.9336676452     2.6819638506
C     -1.8709976589     -1.7144626572     3.0859702331
C     -0.1596400958     0.0042294353     3.6683204437
C     -0.3400304839     -4.505885837     -0.5854837006
C     -0.0809485685     -4.151070715     0.7783893758
C     1.3018273331     -3.9587159714     1.1771098902
C     1.6131640685     -3.0492694333     2.2692036919
C     2.9538276868     -2.6083895836     2.3961476676
C     -2.4891925784     -3.545895795     0.9545312873
C     -1.1482880254     -3.5435619066     1.5278186973
C     -0.8238573962     -2.585367821     2.5822935453
C     -3.5117308175     -2.8222414642     1.5936622259
C     4.9891542102     1.1051462535     0.7712417648
C     5.2235884137     0.1386766214     -0.2434541168
C     3.2378958943     2.7479017832     2.3470832093
C     3.6938218356     3.2209590877     1.1348223668
C     4.5507605911     2.3779851743     0.3194580275
C     1.8691061519     2.9783699732     2.7222043392
C     0.9494279272     3.6532074752     1.8866570361
C     -0.8218347636     2.3570240631     3.0419663632
C     -2.1505862282     1.9651662609     3.1608005301
C     -1.5299523459     -0.3947230611     3.5840914053
C     0.1547009233     1.4235984304     3.5600709438
C     1.47451402     1.830177315     3.4918884266
C     -2.5103838381     0.6281777765     3.5609981635
C     3.1885533496     3.6508768134     -1.057959667
C     4.1664206024     2.5942866498     -1.039542624
C     4.055346823     1.5098099884     -1.955386456
C     4.6835050695     0.3220324186     -1.5630095202
C     2.259156958     3.6836020741     -2.0573259789
C     -0.4607252732     3.3744092805     2.0792587888
C     1.4351299294     4.1841575931     0.6213531775
C     2.8010763197     3.9715967603     0.2908805537
C     0.9534936161     4.1957070284     -1.7859864811
C     -1.4391113175     3.7601895827     1.083437913
C     0.48092473     4.3766889352     -0.4567444881
C     -3.1705550552     2.5032173349     2.3297608365
C     -2.8132679915     3.2792784315     1.2011227532
C     -0.9529641482     4.220642197     -0.2079541244
C     -1.7951256665     4.0136452741     -1.3310545895
C     -1.2323514644     3.5792832391     -2.585896969
C     0.1030777143     3.6263920427     -2.7881483014
C     -5.369205353     -0.0183484644     -0.6608015659
C     -4.8628688545     1.2374263626     -1.1376178748
C     -3.9665338058     1.2846095608     -2.2435148089
C     -3.1926883928     2.4483343267     -2.3415583102
C     -4.9824758362     -1.1783913478     -1.3005912853
C     -3.0571127239     3.3692183809     -1.2316333009
C     -3.6404628798     3.0853711164     0.0127951085
C     -4.6783168757     2.1087432401     -0.0037380714
C     -4.2593726526     1.5527900703     2.3204197371
C     -5.4497182916     0.0330024185     0.7905117122
C     -5.0224149161     1.3678643478     1.1799566181
C     -4.6796884032     -2.3615660525     -0.5190431937
C     -4.6485986927     -2.2909973167     0.8763293506
C     -5.0639056133     -1.0724334954     1.5401147912
C     -4.1962816919     -0.8865058688     2.6906102259
C     -3.83390497     0.3917706618     3.0864566945
C     -1.5404840701     -4.1452240753     -1.2177192178
C     -3.6624604092     -3.0867632645     -1.193751466
C     -2.665974727     -3.7800487748     -0.4730616495
C     -3.4317443532     0.0653262053     -2.8374759589
C     -2.0617816578     0.0397178309     -3.3648273685
C     -4.039075818     -1.1385350019     -2.4068728279
C     -3.2870853144     -2.3315426094     -2.3803007238
C     -1.9757117095     -2.3887795644     -2.9118351334
C     -1.2146331663     -3.4836330157     -2.4739643088


