100

 C     -2.4616015351     0.4408441174     -3.6690389978
C     -3.5935575082     0.4044004377     -2.8294665375
C     -3.9629817249     1.6550526744     -2.2567464456
C     -1.6193867587     1.5943341289     -3.757747591
C     -1.8699574012     2.7662289569     -3.0289404091
C     -3.123206269     2.795919617     -2.3471144579
C     -3.9135125082     -0.8453002913     -2.1468009215
C     -4.7000618233     -0.7478324043     -0.955762309
C     -1.641080469     -0.7116679631     -3.8551939836
C     -1.9091227265     -1.9249819881     -3.2077535098
C     -3.0766552289     -2.0108633037     -2.3222947073
C     -3.104893444     -3.0541616715     -1.3074334645
C     -2.0621666847     -4.005686309     -1.3101437037
C     0.5771906172     -2.4216288072     -3.4451326819
C     -0.7900537812     -2.8502358182     -3.0996598907
C     -0.9473220989     -3.9295222806     -2.2216112889
C     1.6626757004     -3.138230789     -2.9148824905
C     1.4523245234     -4.1536873921     -1.9104576911
C     0.1871640939     -4.5253756879     -1.5666503929
C     -0.9584926247     4.3555843762     -1.4058601556
C     -0.7277915213     3.5370120425     -2.5315637992
C     0.8405767259     -1.0520582687     -3.8255302777
C     0.8523680444     1.8481809386     -3.5246315323
C     -0.2740624556     1.1506993623     -4.0106026817
C     -0.289014177     -0.2580888361     -4.111778679
C     -3.8088248594     -2.8493172239     -0.0439233107
C     -4.5845475381     -1.6744711486     0.098050252
C     -1.5626991709     -4.5644648933     -0.0849674012
C     -2.1140646705     -4.2049840713     1.1271927671
C     -3.2854763373     -3.4080516434     1.1554029252
C     -0.142194034     -4.7408684349     -0.1810918114
C     -3.2511772981     -2.6349198498     2.3857284176
C     -3.9191801935     -1.3917649853     2.4882119972
C     -4.6786311294     -0.958680802     1.3719030867
C     -3.3211254152     -0.3904171885     3.3014250075
C     -1.9767235557     -2.8415756503     2.9874220513
C     0.1538448641     -1.7340175886     3.5747923685
C     -1.2936469752     -1.7879636024     3.642913807
C     -2.0246897599     -0.6004236523     3.8691264518
C     2.154884778     -0.3592056821     3.6867044948
C     0.7863975728     -0.4595635036     3.8798598428
C     0.1462913618     -3.7494431026     2.0661358649
C     -1.2457151783     -3.8103455256     2.2112766828
C     4.0676878902     -2.5430788999     0.8264053107
C     2.9090707501     -3.1642853025     1.3668518018
C     2.2845479004     -2.544378085     2.5360749756
C     0.8847776994     -2.7432089783     2.8361762557
C     2.9148098811     -1.4042466436     3.08989248
C     0.7393421291     -4.3232759667     0.846778274
C     2.4597079691     -4.0290671339     -0.8987361677
C     2.1074570498     -3.9890438495     0.47906019
C     -3.44064434     1.0013324095     2.9706549175
C     -4.1626323723     1.4373566515     1.8426116914
C     -4.8461948604     0.42050342     1.0908917154
C     -4.9748314894     0.5403577261     -0.3420034541
C     -4.6038742567     1.6998810962     -0.9524137361
C     -2.5166271407     3.3590631386     1.6492303161
C     -3.7130833086     2.6562317628     1.1732645743
C     -4.0752406558     2.8135744901     -0.1897906599
C     -1.8595507438     4.2245337539     0.7536237563
C     -2.1878916539     4.2608959918     -0.6467513225
C     -3.2567278633     3.5393817763     -1.1024353313
C     -2.2252394395     1.6640767524     3.3853608991
C     -0.2761140606     3.0247168986     2.8332644669
C     -1.7065948032     2.7913254491     2.7319477119
C     1.7154698454     3.9704387842     1.6759103497
C     0.3248544635     3.9778795549     1.9105260518
C     -0.4618515845     4.5069177311     0.8644018084
C     0.0202043073     0.790573619     3.9153709578
C     -1.366953853     0.6786700946     3.9439041437
C     2.7926069865     0.915659129     3.4070296447
C     2.0232333475     2.0937333542     3.2389664389
C     0.5857392851     2.0425652643     3.459686645
C     2.5835904166     3.0675568244     2.3826950232
C     3.5068553031     3.489199287     0.3091142328
C     2.2703968929     4.2091055891     0.3790387743
C     1.4211003601     4.3309838614     -0.7526178629
C     0.0782994583     4.6280769678     -0.4650194451
C     3.8677630598     2.8954855617     -0.8786105635
C     3.9615021434     0.6608885766     2.6445004438
C     4.3860395793     1.544340127     1.6087360517
C     3.7242257383     2.7910876832     1.5653391227
C     5.01781172     -0.4433618389     0.257801531
C     4.606577228     -1.316472807     1.35457894
C     4.0629307724     -0.7779321335     2.4895792563
C     4.5822347397     1.6383119182     -0.8655803457
C     4.8808941703     0.96578196     0.3529398393
C     3.4502105845     -3.1481776348     -1.4416507048
C     4.1653637903     0.9177535036     -2.0212938302
C     4.1690331379     -0.4827658193     -2.0786395232
C     4.7334280506     -1.1432222572     -0.94558054
C     4.2775067644     -2.4703258375     -0.5925043479
C     1.715595854     3.5875270613     -1.9680054308
C     0.6424298122     3.089324572     -2.7967119812
C     2.9681299247     2.9212634926     -2.0168475488
C     3.1370369603     1.6897681394     -2.6998105891
C     2.0755665214     1.0721995245     -3.3841341929
C     2.0798390963     -0.3831365822     -3.510697885
C     3.1499179904     -1.1488416099     -2.8910099069
C     2.9178314256     -2.5136184113     -2.6425681163


