100

 C     4.2074943278     -2.0352355301     -1.5301133456
C     3.3061793484     -3.1514994717     -1.6365387434
C     0.7461463289     -4.338427687     -1.6137143104
C     1.0145699911     -3.3483904798     -2.5884780841
C     2.3316210432     -2.8380876636     -2.6341367767
C     -1.4291748331     -2.9119443246     -2.7136184112
C     -0.0744356711     -2.5415258437     -3.0943060729
C     -2.4585181477     -2.0305798449     -3.0454144514
C     -1.6925902108     -3.8690369751     -1.6343320113
C     -2.8557601203     -3.6863892245     -0.7613450294
C     -0.5871391947     -4.5667587531     -1.1308922866
C     -2.7161548464     -4.0488414266     0.6040534567
C     3.8024112441     -1.0476782616     -2.4764913299
C     4.0429755122     0.3272563378     -2.2850622716
C     4.8605076653     0.6817307166     -1.1730828709
C     4.7659350537     1.9817100873     -0.577299349
C     3.9599265027     2.941643962     -1.1476689038
C     2.5968405706     -1.5105425593     -3.1060734891
C     1.5567137452     -0.6416837797     -3.4731667336
C     1.783641765     0.7991641481     -3.3409126625
C     3.0465872319     1.271625113     -2.7857874272
C     3.1053258198     2.5884623688     -2.2695589823
C     -0.6594901603     1.1558581447     -3.707157368
C     0.6499040951     1.6856491594     -3.3810503365
C     0.7239293483     2.9873605728     -2.7424630963
C     1.9410922842     3.3923506729     -2.1844145105
C     -1.7795080062     1.9843278067     -3.479552957
C     -0.8740147579     -0.2843054526     -3.7961883543
C     0.2079725621     -1.1957042048     -3.5688271071
C     -2.1936537685     -0.7744401384     -3.6531018104
C     3.9878472035     2.6083795376     1.6662172959
C     3.2396386034     3.6999010388     1.0810221197
C     4.7833792486     1.8127744147     0.8703723604
C     3.2304240469     3.8686123325     -0.3090783601
C     1.9991349734     4.1798257647     -0.9606444032
C     2.0198405226     3.8440653892     1.8082567163
C     0.8355525551     4.2851888348     1.1994452472
C     0.8249292594     4.4634406233     -0.2470158864
C     -1.6900056423     3.2071237111     -2.7293112489
C     -0.4609423502     3.6668643696     -2.2557873659
C     -0.4228156427     4.3678589224     -0.9727531624
C     -1.6065696447     4.465876693     -0.226803187
C     3.8915796069     -1.5785883277     2.0612192961
C     4.1103773572     -0.1914570024     2.1719883257
C     4.893588459     0.412738821     1.1481982929
C     1.9797462962     2.7830636794     2.8054245254
C     3.1537268293     1.9961556592     2.6859980732
C     3.1158908482     0.5988267784     2.889647582
C     0.7719959014     2.2392762134     3.2544919494
C     0.7103492729     0.8178512998     3.5615390021
C     1.8648374595     -0.0087657528     3.3375935713
C     1.6742435144     -1.4474938272     3.1921589326
C     2.7279002184     -2.1988035426     2.6263134269
C     -1.7214700717     1.0457945941     3.690570819
C     -0.5959017071     0.2017028353     3.7256453658
C     -1.5966487861     4.2825306252     1.2117080387
C     -0.4006695018     4.0087827893     1.8965621212
C     -0.4181672323     3.0072296948     2.958940424
C     -1.639465905     2.430517604     3.3086697067
C     5.0691648299     -0.2696907711     -0.1111180138
C     4.2664980215     -2.3175280564     0.8977902007
C     4.7259136536     -1.6355801699     -0.2635663789
C     3.3899946     -3.4532796879     0.7890708419
C     2.9298529538     -3.8957714192     -0.4864068235
C     1.6663270068     -4.5401818974     -0.5229705109
C     2.4919365303     -3.4171874559     1.8957164131
C     1.2133537941     -3.9965188429     1.8459006876
C     0.892797346     -4.7292292338     0.668973884
C     -1.4795404091     -4.5255246865     1.1248101659
C     -0.4724446654     -4.8812654233     0.2686951094
C     -1.1650864893     -3.7838160145     2.3441524555
C     -2.2869217902     -2.982289162     2.6539418709
C     -2.1460601232     -1.7122746651     3.2433477204
C     0.1487097758     -3.3689477277     2.6252305199
C     -0.7984159941     -1.2308138239     3.5234704928
C     0.3417094189     -2.054904537     3.2323074337
C     -3.0278356479     0.5714259907     3.3032111969
C     -3.2507029945     -0.7813777899     3.0429527106
C     -4.2769561583     -1.0655651209     2.0916771819
C     -2.8342389814     3.6517044476     1.5707085351
C     -2.8545521695     2.7660592557     2.6272824398
C     -4.4487792825     1.307055676     1.3968933733
C     -3.6925897697     1.6042323131     2.5646349894
C     -4.7760645216     -0.056016423     1.2203495806
C     -3.7367206214     2.2085084272     -2.1783280097
C     -2.9014697448     3.3501814556     -1.9615881907
C     -2.8525704967     3.9435911445     -0.7155018769
C     -4.4318594498     1.5745166004     -1.122133816
C     -4.3363410613     2.1737247066     0.2185380181
C     -3.5994357663     3.3702489386     0.3700856794
C     -4.1562718747     -0.5771784486     -2.3749524775
C     -3.2869275101     0.089887917     -3.3101418768
C     -3.0894779357     1.4371985819     -3.2215653051
C     -4.9335377771     -0.6380003574     -0.1046038529
C     -4.6974166701     0.1368951389     -1.2629364315
C     -3.3086747631     -3.2367180881     1.6436229642
C     -4.24125766     -2.2888920778     1.3408542125
C     -4.5781054838     -2.0192026828     -0.0355484371
C     -3.8476022685     -2.6630028864     -1.0780006559
C     -3.680850266     -1.915944386     -2.2583199725


