100

 C     3.8519307846     2.7367578496     -0.8802489109
C     4.4887359075     2.5144346558     0.3617915887
C     5.1835290238     1.3016966831     0.6501415031
C     3.8519539531     1.6359294349     -1.8529574094
C     4.6464027538     0.5176597607     -1.5929186976
C     5.361389065     0.3545382509     -0.3485556088
C     1.8493006982     2.5277513788     -2.9137978283
C     2.7117794187     1.4394107675     -2.7470179416
C     0.8131845423     -0.061385332     -3.4604721901
C     2.2160904237     0.1208776444     -3.1022799322
C     3.034399026     -1.0231995381     -2.7403232371
C     4.2652908556     -0.7917970562     -2.0744878634
C     1.0162295531     -2.508052631     -2.9734353184
C     2.4334068327     -2.3385045156     -2.6530277319
C     0.3790333851     -3.6659179009     -2.4704732221
C     0.1835168367     -1.372927044     -3.3508378534
C     -1.264973614     -1.4740752345     -3.272513575
C     0.5456218781     2.3707440929     -3.4073978183
C     -2.2316879057     2.15981167     -3.151865224
C     -1.4900649651     0.9822939585     -3.512692399
C     -0.0396721248     1.0875827358     -3.6105221495
C     4.1749916283     -2.9565545974     -0.9748459866
C     5.3880975027     -1.0487934092     -0.0258001458
C     4.8240617089     -1.7560043451     -1.1589141575
C     2.2549824358     -4.1976793392     -1.0309956176
C     3.0648787175     -3.2966025588     -1.8069611083
C     0.965270479     -4.4027416817     -1.3761541498
C     3.885269652     -3.4259090804     0.3823842308
C     4.2173364652     -2.6253619605     1.4572100543
C     5.06208648     -1.4679604291     1.2700408537
C     4.6565773093     -0.4866771808     2.248672119
C     4.7912827764     0.8610463657     1.9825975734
C     2.6220748093     -4.0848106145     0.3611792875
C     2.7185145017     3.7305064256     1.5444280939
C     3.8047194003     2.9054813009     1.5878708928
C     3.8266943614     1.7869399589     2.4944280837
C     3.4504825411     -0.9627312779     2.8913846237
C     2.3969065156     -0.092253322     3.2404008227
C     2.6162034731     1.3437176604     3.0969044521
C     -0.0502487408     0.2852246573     3.4736209748
C     0.1532933223     1.7066314553     3.2718980714
C     1.4716558572     2.2265566244     3.0510425687
C     1.5790818307     3.4662669831     2.3690168289
C     -2.2520237762     2.0171966252     3.0648377291
C     -0.9742624816     2.5296727798     2.8851479325
C     0.7901039714     -1.9955000126     2.8626813873
C     1.0508569312     -0.6345682867     3.2993733881
C     -2.984418035     -1.965124937     2.7900202517
C     -1.6506277538     -1.6127079579     3.1240152372
C     -1.3871443138     -0.2375828722     3.5178023929
C     -2.4651930956     0.6820197684     3.5042949371
C     -0.031520689     -4.5709348348     -0.3593768459
C     0.2312789463     -4.1091806525     0.962287473
C     1.6030195835     -3.8124993928     1.3178909534
C     1.8750991553     -2.7937034091     2.323318945
C     3.1906329744     -2.2930897846     2.4213089914
C     -2.2060918975     -3.645521594     1.166507762
C     -0.8576883819     -3.5048062209     1.6948463235
C     -0.572760631     -2.4413511258     2.6434980449
C     -3.2538461498     -2.943266408     1.7850827576
C     1.8844377842     3.691431728     -2.0066075177
C     2.7803550908     3.7231428108     -0.921276177
C     2.2671608618     4.2746624208     0.2857241186
C     -0.8349720303     3.6222725167     1.9366423882
C     0.4562705821     4.0803042468     1.7238694989
C     0.8818154958     4.5792590826     0.4322342342
C     -1.8556165048     3.847599227     0.912202908
C     -0.0126121854     4.5584574089     -0.6518813441
C     0.5724234235     4.1991698431     -1.9111229937
C     -3.3698776813     2.4392306557     2.250540877
C     -3.1421440655     3.1989772841     1.0731670564
C     -1.4206921232     4.2731421318     -0.3962459722
C     -2.2154763821     3.8712503456     -1.5160041578
C     -1.5566801914     3.3578435984     -2.7073747881
C     -0.2223706942     3.4736355075     -2.8761617954
C     -5.390745656     -0.4244685259     -0.5766921144
C     -4.9993777642     0.8238548765     -1.131394375
C     -4.1044427902     0.875109601     -2.2355568183
C     -3.4210487124     2.0898219558     -2.4163894256
C     -4.9235788795     -1.5970370398     -1.1588116843
C     -3.3842805448     3.1180460214     -1.3661051955
C     -3.9443372888     2.853459672     -0.0935037744
C     -4.8768731112     1.7878205378     -0.0344874803
C     -4.3477080865     1.4005069182     2.3054101426
C     -5.442474186     -0.293127008     0.8730122441
C     -5.1260948878     1.0931343154     1.1849348773
C     -4.5162363083     -2.7034714483     -0.3156281378
C     -4.4491466153     -2.5380382149     1.0623578927
C     -4.9429787825     -1.3157939315     1.6671023146
C     -4.0574338078     -0.9988923972     2.7750307193
C     -3.7916176757     0.3130599516     3.0973962623
C     -1.2745068675     -4.3214287051     -0.9854702461
C     -3.4560523661     -3.4017300117     -0.9745318137
C     -2.4027124056     -3.9914288089     -0.2365294387
C     -3.4818618858     -0.3321406416     -2.7632217459
C     -2.1138047514     -0.2871877157     -3.3025107466
C     -3.9993835377     -1.5499202893     -2.2636337292
C     -3.158345213     -2.6977051187     -2.1931576134
C     -1.8565921129     -2.6915420407     -2.74773887
C     -1.0178608553     -3.7110137101     -2.273761786


