100

 C     3.9822861513     -2.1741147502     1.5809582882
C     3.976600195     -0.9793329482     2.3219138407
C     4.6769541731     0.1217925465     1.7395527224
C     4.2953294458     1.4610575212     2.0433934215
C     3.3302270745     1.6943301466     2.9899296077
C     2.6613870249     0.597048188     3.6318315869
C     2.8593605331     -0.748474086     3.2394012496
C     2.9507449996     -3.1371304016     1.746938839
C     1.7923613816     -2.9022257685     2.5435892504
C     -0.5436502831     4.3372278891     -0.7541499521
C     0.7605764221     4.2817929     -0.2190723707
C     4.3454292041     2.2759309188     0.8536581637
C     2.3701151618     2.7637518147     2.8066754756
C     2.2704266069     3.4804890911     1.6012612755
C     3.3444586619     3.2524878328     0.6056911688
C     0.9448334697     3.9567278576     1.1842707842
C     1.2040685314     2.4040703183     3.5361635385
C     -1.1478126456     2.1507302088     3.6990327617
C     -0.0650906955     2.8901297702     3.1834456515
C     -0.2307033053     3.6725131536     1.9785145222
C     -1.5825951589     3.725244482     1.3955887659
C     -1.6958741087     4.1056393943     0.0531876893
C     0.5962649779     -4.456570097     1.0499994544
C     0.5773651085     -3.6276534349     2.2087843452
C     1.7209530536     -1.6703831395     3.3005989921
C     -0.8054847263     -1.9275424349     3.4516277221
C     0.4159144094     -1.2034638042     3.7650698055
C     0.2957265482     0.1842260048     4.172433427
C     1.3819819241     1.0595536497     4.0325875504
C     -0.9656550158     0.8194681333     4.1929045296
C     3.0659444721     3.5158505903     -0.7565438872
C     1.7843779636     4.0190120684     -1.1547330248
C     -0.8389989127     3.8633402458     -2.0742936157
C     0.1492183864     3.2446410095     -2.8634599858
C     1.4785579739     3.4771806767     -2.443877529
C     -1.5725762278     1.639026656     -3.6882160914
C     -0.1762699432     2.0366634992     -3.6162878251
C     -1.8543991937     0.3051027301     -4.0237190907
C     -2.204223014     3.4264418142     -2.0960776187
C     -3.7943897247     1.6982498334     -2.532008593
C     -2.6085470201     2.3627615991     -2.9325027019
C     -3.8112086175     2.828145181     -0.3155314947
C     -2.7620895487     3.6278059271     -0.8040148723
C     -4.4025172791     1.9411229561     -1.2566538115
C     -3.8246063295     2.5184893015     1.1109487674
C     -2.4721067066     2.2517354983     3.1535616351
C     -2.7063820802     2.9675943339     1.9650164061
C     -4.5542489335     1.3755159976     1.5013858644
C     3.5675089255     2.6889256737     -1.8041392421
C     4.4296284834     1.5939029618     -1.5348201755
C     4.8666560845     1.4375420769     -0.1904785315
C     4.2766391146     0.4355472457     -2.3476656788
C     2.539395116     2.6052704551     -2.8168853968
C     0.874208587     1.068050129     -3.8371932467
C     2.2525846621     1.390963556     -3.471277969
C     3.1837499723     0.3303960807     -3.2836394108
C     -0.8186741814     -0.674212125     -4.0915621084
C     0.5344879786     -0.3357223204     -3.9860538177
C     4.5402262955     -0.8680869272     -1.8210797715
C     4.9070877772     -1.0369858712     -0.4521256941
C     5.0784071955     0.1152406515     0.3549550236
C     4.4429947057     -2.2119856809     0.202934013
C     3.6267782118     -1.7835057031     -2.4444685372
C     3.1412854791     -2.927937115     -1.7875269314
C     3.6768544891     -3.1931345406     -0.4892370852
C     1.6886156015     -4.4277780332     0.128621321
C     2.8641749156     -3.8497930456     0.4934141687
C     1.4414342613     -1.3990611913     -3.5818720752
C     2.7803727022     -1.034968186     -3.328201402
C     -1.330910506     -1.9235702746     -3.611947159
C     -0.4998843659     -2.859485111     -2.9813508283
C     0.9363126809     -2.6418800874     -3.0266815233
C     1.7954035632     -3.4038312663     -2.1331105541
C     1.1682985483     -4.2814539096     -1.2312356754
C     -2.4830469708     -3.4116691444     -1.4831332541
C     -1.126133917     -3.703605155     -1.9749569208
C     -0.247438134     -4.4150839719     -1.1421816759
C     -2.8008931554     -3.7719404802     -0.150538017
C     -4.6794436748     -0.3467708616     -1.7643336618
C     -4.0036032786     0.300904932     -2.8469968652
C     -3.0463368488     -0.3723797658     -3.5693737342
C     -4.2955536972     -1.6395668585     -1.329542082
C     -3.2758477504     -2.3629474632     -2.0981474335
C     -2.7016281234     -1.7189788018     -3.2181629928
C     -4.8303625397     -0.9026238944     0.9969345973
C     -5.0827982182     0.4368339778     0.5287776044
C     -4.9986998529     0.6981903047     -0.8172935469
C     -3.6710492637     -2.9671432465     0.6494074774
C     -4.4477218477     -1.9267640444     0.0928572905
C     -3.140724735     1.0201231889     3.4495475316
C     -3.097946898     -2.8647934006     1.9693399254
C     -3.2609086231     -1.7176717852     2.7620618806
C     -4.2584830079     -0.8073598671     2.318322761
C     -4.1546362918     0.5848694794     2.6313170618
C     -0.5724163118     -4.6405352912     0.2530613727
C     -1.7947508334     -4.2832763923     0.7340399463
C     -1.8811203831     -3.6048671884     2.0003135371
C     -0.7160055195     -3.1501766736     2.6790693618
C     -2.1140541648     -1.2581616494     3.5512362743
C     -2.1601666404     0.0889757359     3.9592172115


