100

 C     2.8938695066     -3.8863797542     0.6887820275
C     3.971645506     -1.1294800631     -2.2425604453
C     3.9830998735     -2.205554483     -1.3280401945
C     3.1257281131     -3.2828661337     -1.651402591
C     2.5906530936     -4.1447887381     -0.6304971173
C     2.9848717809     -1.0217290352     -3.2752813067
C     1.9339619653     -1.9608299001     -3.3982317809
C     2.106946982     -3.1544769752     -2.6617130412
C     0.4361124289     -0.0869545539     -4.02489334
C     0.6032737546     -1.5005124607     -3.7557364285
C     -0.8602558295     0.4310927658     -4.0515174667
C     1.5109092656     0.8823077218     -3.8282736763
C     1.1979772895     2.2587312099     -3.405138691
C     2.7837840952     0.3755211786     -3.5478928759
C     2.1872684925     2.9886261902     -2.7319486623
C     -1.0698811821     -4.5159511353     -0.4827541118
C     0.247662637     -4.6268741057     -0.004647799
C     1.2609076366     -4.5244110483     -0.9851991323
C     0.9742342877     -3.9176952136     -2.2616232955
C     -0.5519679626     -2.3044653169     -3.3900228796
C     -0.3352975539     -3.5270424688     -2.6330085954
C     -1.3665435874     -4.0236912453     -1.8082636485
C     -2.0014138723     -0.3687224045     -3.7671898061
C     -1.8777289591     -1.7086251865     -3.3501959648
C     0.5178579228     -4.2350667998     1.3784531381
C     1.8537537112     -3.9434586292     1.7035127232
C     -2.1393784053     -4.1665913991     0.3849402473
C     -1.9023712058     -3.6636231965     1.7026353923
C     -0.5398652382     -3.6462993377     2.1950630903
C     -0.1671407075     -2.665746011     3.2063307844
C     -1.1476088051     -1.7859321807     3.6939447928
C     -3.1834017464     -3.6287048204     -0.4440855536
C     -4.1072285286     -2.7510840936     0.065626199
C     -4.0088365964     -2.3324368009     1.4484143358
C     -2.8968066461     -2.7386515563     2.2381598445
C     -2.4901279794     -1.8143920874     3.229738452
C     -4.6012086473     -1.6811590292     -0.7381094844
C     -2.9434947379     -2.2416243483     -2.4959715835
C     -2.6558705368     -3.4135967502     -1.7664449732
C     -3.0383681697     0.4994234816     -3.2827196509
C     -4.0203626341     0.0457034059     -2.3801065193
C     -3.9960565014     -1.3569271965     -1.9805096849
C     -4.5562229911     1.035172159     -1.5049220209
C     1.2126446003     -2.2493296306     3.3963218989
C     2.1967976239     -2.981088428     2.7176376113
C     3.4494471325     -2.3818510848     2.3394798328
C     1.5305274232     -0.8735033404     3.8177088763
C     2.8027747858     -0.3691163404     3.5302572087
C     3.7425634852     -1.1028396211     2.7317336471
C     -0.8384995269     -0.4178136122     4.0541399201
C     0.4586686262     0.0977826805     4.0203044424
C     0.6269974861     1.511033878     3.7502190149
C     1.9565350769     1.9688362361     3.3853192189
C     3.0049724964     1.027755355     3.2565277291
C     2.1276645926     3.1621659429     2.6478402458
C     -4.5497251718     -1.0148668285     1.5281688152
C     -4.0071307974     -0.0264274137     2.4003561217
C     -3.0209805556     -0.4820091847     3.2974926807
C     -1.979720644     0.3841612314     3.7761742686
C     -1.8558278248     1.7238366679     3.3584926656
C     -0.528739067     2.3171680785     3.390936667
C     4.3293062857     -1.9284905632     0.0631087585
C     4.6188532783     -0.5429357324     0.4771804489
C     3.8199339466     -2.8314648405     1.028727302
C     4.384814837     -0.196101448     1.823122618
C     4.3325118972     1.9320072375     -0.0893117189
C     4.6171480761     0.5459134596     -0.5049715211
C     4.3749714332     0.199523041     -1.8495867013
C     3.8194887521     2.8359413716     -1.0520860071
C     3.4408749024     2.3870350804     -2.3607603865
C     3.7293794563     1.107465545     -2.7546154837
C     3.9861741712     1.1336494354     2.2183268034
C     3.1410488872     3.288629021     1.6318644958
C     3.994566726     2.2097153237     1.3037477672
C     1.2749109193     4.5337022889     0.9760292555
C     2.601926991     4.1515746418     0.613943469
C     2.8973130298     3.8925992149     -0.7070078944
C     -1.0586515476     4.5296449961     0.4865557452
C     0.2564254264     4.6380724237     0.0011286064
C     -3.9823954781     1.3761556342     2.0006302941
C     -2.925313605     2.2588543204     2.5102191345
C     -2.6395385408     3.4302953179     1.7790876026
C     -1.3488679336     4.0379428886     1.8137229843
C     -0.3139833291     3.5393331497     2.6327159593
C     0.9941942783     3.927508561     2.2540509839
C     -4.9946417634     0.6687261583     -0.1681749586
C     -4.9948790583     -0.6475852102     0.1938996021
C     -4.10231691     2.7705340908     -0.0448717733
C     -4.5938450925     1.7015394503     0.7616094583
C     -3.1740165775     3.6463909981     0.4596759427
C     -2.5046378389     1.8307897074     -3.217938677
C     -2.904037518     2.7558211198     -2.2241318394
C     -4.0124191783     2.3516985816     -1.4281983381
C     1.8516919668     3.9516345132     -1.7159233829
C     0.5181729416     4.2457688814     -1.3834477504
C     -0.5451921349     3.6590138096     -2.1941595763
C     -0.1799504054     2.677749005     -3.2074869995
C     -1.164764941     1.7997931983     -3.6896172199
C     -2.1335980115     4.1823172835     -0.3751606746
C     -1.904887399     3.6789098047     -1.6941658996


