100

 C     3.617023586     -0.4842013608     -2.5236576703
C     2.5993475971     -1.3797018809     -3.0973362011
C     4.4390853996     -0.97559266     -1.4890811078
C     2.5458864212     -2.7046032145     -2.6450982697
C     1.3184162977     -3.4460941455     -2.6365584929
C     0.0843516236     -2.8951062034     -3.0440853004
C     0.1002952752     -1.5465820137     -3.5878373387
C     1.3747013819     -0.8481506318     -3.6697965668
C     1.3650589531     0.5339806941     -3.9103471004
C     -2.380203827     -1.4059516355     -3.202795806
C     -1.1389060206     -0.7958562718     -3.6580018748
C     -1.0903083209     0.649201688     -3.7988920262
C     0.1582079907     1.2650864787     -3.9639437537
C     -3.4748525862     -0.5486362439     -2.9379727933
C     -2.3803698244     -2.7236846997     -2.5803884813
C     -1.1406150798     -3.4628309871     -2.4859376647
C     -3.4134773363     -3.0315504738     -1.6504287293
C     -1.0184787247     -4.4251328145     -1.4453206519
C     2.41796908     1.4159494171     -3.4378260879
C     3.4681650585     0.9585337578     -2.6316445386
C     4.0025255978     1.8543745689     -1.5909244555
C     1.8252148429     2.708933236     -3.2530307777
C     2.2891435055     3.538360154     -2.2480456412
C     3.4115148362     3.1279705401     -1.4462628058
C     0.4260052668     2.6207116096     -3.5138983271
C     1.3543050955     4.2599538652     -1.4373562176
C     -0.0277755493     4.1640792076     -1.647845326
C     -0.5116153108     3.3352410131     -2.7577845644
C     -3.3623849875     0.885693519     -2.9877545338
C     -2.1669919925     1.5123472175     -3.3433602806
C     -1.8695034834     2.8302736793     -2.7633179706
C     -2.7450596236     3.3607293969     -1.8045422038
C     4.6397405158     1.2719110213     -0.4104420075
C     4.8641289373     -0.1334979919     -0.3959129104
C     3.2198165801     3.7221404099     -0.1435305946
C     3.7195734944     3.0983726155     0.9812309733
C     4.498508019     1.9009200514     0.8490529635
C     1.9215574233     4.3278170967     -0.0969992688
C     2.917194814     2.9966480762     2.1623073705
C     1.6084705336     3.4847115386     2.2052457544
C     1.1059500413     4.2311936389     1.0440204238
C     -2.2515003389     4.1070453282     -0.6596783907
C     -0.8884833112     4.4082772339     -0.5041215743
C     -0.3202633896     4.4001676726     0.8438851352
C     -1.1548992992     4.0430295511     1.9143395466
C     4.297215475     1.1191009057     2.0497093647
C     4.4223868371     -0.2947095713     2.0316711311
C     4.8106505149     -0.901591693     0.8049471344
C     3.5879179666     -1.0396421606     2.9006706058
C     3.2796518351     1.7603705548     2.8208598327
C     -0.6666207656     3.1924284196     2.9885019973
C     0.6677209134     2.8087312946     3.0990325589
C     0.9778578984     1.5054935335     3.6841010998
C     2.3278996556     1.0032909812     3.5528001229
C     2.5649719193     -0.3891533899     3.6474393548
C     3.0947210396     -2.3506911413     2.5267481178
C     3.4578097317     -2.9566945672     1.2881909247
C     4.3749897781     -2.2422468083     0.4727990473
C     4.2556599391     -2.2920491649     -0.9529449758
C     3.3505554851     -3.1511413128     -1.5321681919
C     1.206950678     -4.1218067497     1.336337348
C     2.4966700261     -3.8708222708     0.6787015869
C     2.5680625513     -4.0387367939     -0.7278863475
C     0.1627603456     -4.6759881356     0.5692546914
C     0.2564988304     -4.7442156087     -0.8778181392
C     1.3963118964     -4.3439785821     -1.5024461448
C     -1.7340716267     2.3359028922     3.4017313421
C     -1.4569641862     1.0245565549     3.8380032048
C     -0.0954759562     0.5786436771     3.9637059076
C     0.1556897755     -0.8621308702     3.8982508987
C     1.4669206863     -1.302621469     3.7710308675
C     1.8028982888     -2.519628974     3.0847535458
C     -0.8930980069     -1.8126397873     3.514740798
C     -0.5752905094     -3.0376145912     2.7699739497
C     0.8088062596     -3.3446939809     2.495058033
C     -2.4880755375     0.0748922427     3.6302589461
C     -2.1999570348     -1.3272308618     3.4798439827
C     -1.6143249797     -3.6446015392     1.9583504771
C     -1.2071745146     -4.4808732439     0.8934259085
C     -3.0845565743     3.7664826664     0.4564552439
C     -2.5270508362     3.7147526067     1.719753163
C     -3.8025316686     1.6302855986     2.2045325398
C     -2.8916055148     2.6367816305     2.6058152341
C     -3.6257816258     0.3703475471     2.831922541
C     -4.7733807362     0.3669382671     -1.2001990907
C     -4.2241675816     1.436656164     -1.9756602207
C     -3.9021698755     2.6312190163     -1.3720366681
C     -4.8045124558     0.4201837261     0.2130580295
C     -4.4028260762     1.6749094746     0.8641594735
C     -4.0617345073     2.7783424988     0.0478324451
C     -4.5212221     -2.0727208559     0.1966291373
C     -4.3693308115     -2.0445387035     -1.241305969
C     -4.4348280455     -0.8508284923     -1.9073871002
C     -4.0811615516     -0.8555339165     2.2146723171
C     -4.6614976288     -0.8561118611     0.9286198819
C     -1.9502966631     -4.4676641183     -0.3613416237
C     -3.2201881436     -1.9077617452     2.651000104
C     -2.9455269899     -3.0406077019     1.8647234891
C     -3.7150893385     -3.1536780998     0.672504808
C     -3.1436556467     -3.8119125391     -0.4778505767


