100

 C     4.8805703659     -0.8904040047     1.0470780759
C     4.2816154339     -2.1878821156     1.2081199903
C     0.7986931459     -4.4537871975     1.1344505305
C     2.0737048487     -3.9167507545     1.4602269057
C     2.2139875147     -2.8931069449     2.4201634854
C     3.4153785443     -2.1402965163     2.3486006443
C     -0.3788071631     -4.0171177104     1.7536533733
C     -0.2731420771     -2.9263970268     2.7394157265
C     -2.7783162487     -3.5722143189     1.4554537628
C     -1.6233130943     -4.2481301571     1.0207857514
C     -1.5786203411     -4.6013406914     -0.3623488379
C     4.4434443558     -0.0669285852     2.1326545754
C     4.289878878     1.3401563702     1.98496958
C     4.6154298991     1.9333770732     0.7329560099
C     3.2741222807     1.9661341431     2.7428237942
C     3.4887036749     -0.8306698979     2.8920348789
C     1.0093757423     -2.32425576     3.0294596944
C     1.0792869248     -0.9653251062     3.5567706616
C     2.346868218     -0.2336358662     3.4899051245
C     2.3398790971     1.1795646589     3.5195476216
C     -2.7185261047     -2.6578196689     2.5460862231
C     -1.4796583027     -2.2289451547     3.1148234277
C     -0.1346643811     -0.2207245475     3.7802563534
C     2.5733997652     3.1146960709     2.2533649059
C     2.8155413908     3.6564517531     0.9615480766
C     3.9127074392     3.0882936455     0.2525561452
C     3.8463500681     2.9501403136     -1.1787124663
C     2.7877188563     3.4668246975     -1.8641598914
C     1.2529171123     3.0902998355     2.7865304044
C     0.1493710491     3.6768326444     2.1371707302
C     0.3469513246     4.2826951983     0.832906921
C     1.6837389879     4.2292286297     0.2338272935
C     1.7585731186     4.2072844963     -1.1805386015
C     -2.0994846139     4.2097861181     0.5337508023
C     -0.8126432834     4.4658479968     -0.0116383649
C     -2.4994327503     1.3522144726     3.4483396786
C     -1.2744574398     2.0219386569     3.409155015
C     -1.1526220151     3.2320443749     2.5852258945
C     -2.264552524     3.6374829282     1.829318125
C     -1.4062006841     -0.8810648108     3.6449452905
C     -0.1053489969     1.2401259829     3.7382251202
C     1.1205131782     1.8909300956     3.5781322384
C     -2.5717740971     -0.06663871     3.5987214747
C     3.9177458974     -0.5034507277     -2.4642349112
C     3.716829351     0.8823917411     -2.5485132288
C     4.3894266835     1.6769894595     -1.57322571
C     0.8188333879     3.1597233539     -3.0388995644
C     2.1520998114     2.6966197309     -2.9249790195
C     2.4872895431     1.360556482     -3.1777334184
C     -1.514119665     2.7807387389     -3.1977655685
C     -0.2094751995     2.322511585     -3.4983336466
C     1.4088573967     0.4265244592     -3.5535169274
C     -0.6879993636     4.339511677     -1.4572864538
C     0.5859592259     4.1304639717     -1.9899583273
C     -1.7550985671     3.7995550915     -2.2253378018
C     4.9374938139     1.0825610946     -0.3969354658
C     4.631879263     -1.10866419     -1.3866494314
C     5.0390730975     -0.3367279325     -0.2590307812
C     4.1027796862     -2.4373706783     -1.2215601898
C     3.9347437992     -2.9790782203     0.0788528943
C     2.8723443965     -3.9007841492     0.2530585039
C     3.0974963708     -2.6508347928     -2.2242762912
C     2.0264759434     -3.546482702     -2.0401660805
C     2.044642742     -4.3168832135     -0.8404562914
C     -0.3266108506     -4.7508448998     -1.0189068738
C     0.8232652002     -4.7904430783     -0.2784799466
C     0.0620601593     0.9046724738     -3.7099997872
C     1.6310514534     -0.9966582097     -3.3889189656
C     2.9092236192     -1.4253980842     -2.9239793563
C     -0.3580164611     -3.9826348644     -2.2557204167
C     0.7556636277     -3.2390272351     -2.687400953
C     -1.0605276411     -0.0246145799     -3.6777920881
C     -0.8276911745     -1.437406801     -3.4754349724
C     0.5247922946     -1.9271160364     -3.3059984752
C     -2.6153818007     1.8795682237     -3.1897809059
C     -2.4072704672     0.5060733566     -3.4529790341
C     -3.434484724     -0.3342804664     -2.9584211382
C     -3.2113284428     -1.7175521545     -2.7775826244
C     -1.9507285398     -2.2850243878     -3.0619158888
C     -1.6862321012     -3.5202406846     -2.4222311111
C     -3.202759891     3.7432958424     -0.2836864316
C     -3.030670315     3.5191257008     -1.6338890562
C     -4.3578985584     1.4235935561     -1.476657009
C     -3.5885794895     2.3420033509     -2.2352739519
C     -4.3709981767     0.1061245203     -1.9596862437
C     -4.3339988324     0.6280814655     2.1878306784
C     -3.6270930465     1.7828065417     2.6431953625
C     -3.4956986377     2.8772535958     1.829880636
C     -4.7656761924     0.5001829493     0.8481181243
C     -4.5775925106     1.6544546404     -0.0400068102
C     -4.029542575     2.8412962499     0.4999215056
C     -4.441668038     -1.9721117897     1.0987810104
C     -3.82364779     -1.7564528673     2.3845886481
C     -3.7513545942     -0.493513102     2.9024296564
C     -4.6709505694     -1.0209421159     -1.1164006825
C     -4.8284241053     -0.865143043     0.2904965223
C     -2.4714384391     -3.9659141605     -1.2926435911
C     -4.0280049837     -2.1658163373     -1.6713864462
C     -3.5988371113     -3.2406948265     -0.8541107327
C     -3.8124450065     -3.1340381321     0.5447829148


