100

 C     -1.3296239037     4.0193768644     1.725368295
C     -1.8344192006     2.9053138139     2.4427576267
C     -3.1279859375     2.3548851733     2.0443887075
C     -3.4689728756     0.9900137871     2.4088353711
C     -4.4818002674     0.3308331979     1.6464269469
C     -1.2662663418     0.7679536098     3.5947347217
C     -2.5307065343     0.1821160095     3.1646684791
C     -2.6887626593     -1.2751764636     3.1504583676
C     -1.6191953811     -2.0858203941     3.5886370939
C     0.5307658764     2.5205045786     3.1891614673
C     -0.8886773211     2.1117779246     3.1894952147
C     1.4927746593     1.621577653     3.6594188422
C     1.1257479423     0.3062827173     4.0788044814
C     -0.2212969983     -0.1167126038     4.0653169564
C     -0.3901538931     -1.5105510785     4.0189349784
C     0.0752649458     4.3259707106     1.6305526821
C     2.4025785714     3.5397327073     1.7725631897
C     1.035029199     3.5845091516     2.3184953106
C     4.3404010333     2.0191641236     1.3483183936
C     3.3197027984     2.4975399736     2.2091602114
C     2.8576464239     1.590854229     3.185039498
C     2.6160198106     4.0749721077     0.4811155551
C     -3.6136220453     -1.9082726048     2.2185263881
C     -4.4685870798     -1.0943292274     1.4673548903
C     -1.3160406575     -3.3667790364     3.0078806597
C     -2.1152129491     -3.8810040987     2.0129209966
C     -3.2936219774     -3.1654307225     1.6301920869
C     0.3835336788     -4.6381072426     -0.5658051765
C     -1.5166253548     -4.4960497545     0.867556671
C     -0.1038627538     -4.5769003182     0.747136168
C     2.1957050728     -0.5639021938     3.7433512885
C     1.9684551662     -1.9020032997     3.3461258723
C     0.6854231736     -2.3857094251     3.640095269
C     0.1249737923     -3.4938234099     2.9263005301
C     2.1244330511     -3.5278413127     1.4658242188
C     0.7705414761     -4.0157471141     1.7989652809
C     -3.456865562     -3.3701071753     0.2232410045
C     -4.0981886795     -2.4187949948     -0.5964149023
C     -4.7899727949     -1.3917881074     0.0964175718
C     -5.1315911067     -0.1508837908     -0.538241151
C     -4.6996779585     0.081246658     -1.8318781361
C     -2.3480175711     -4.1449590094     -0.2574016747
C     -0.4442336319     -4.2935548421     -1.6898585727
C     -1.7868156     -3.8812711335     -1.528979787
C     -2.3095692609     -2.7861292956     -2.3451607099
C     -3.5374020932     -2.1357537786     -1.9185956704
C     -3.8657296104     -0.8952074168     -2.4962835307
C     -4.6560020671     2.1744369669     0.0721096542
C     -4.2912557782     2.4522983713     -1.3093248486
C     -5.0321465029     0.9044753786     0.4522333715
C     -4.2340529776     1.4033260836     -2.2129737829
C     -1.9222239451     4.4078433982     0.4793022173
C     -3.0932604081     3.8472199861     0.0675088839
C     -3.2421359992     3.4247831258     -1.305475048
C     -3.086092088     1.2532071622     -3.056271247
C     -1.985087756     2.1386327179     -2.9990053574
C     -2.0865113999     3.298487347     -2.1263595284
C     0.4206316116     3.5560374651     -2.2655155838
C     -0.8669028718     3.9760673603     -1.7166008257
C     -0.8740613331     4.6556993621     -0.4722382064
C     1.5919953586     4.0010430364     -1.6211520598
C     1.5304917748     4.5774444593     -0.3006670258
C     0.3192082829     4.8083318799     0.2925484862
C     1.8266299758     1.7239641519     -3.2474377498
C     0.6798152605     -0.2950125871     -4.0500589581
C     -0.5860951788     0.2419227788     -3.8256032442
C     -0.6829505272     1.6358208081     -3.4205260758
C     0.5227627597     2.3646340444     -3.1001007457
C     1.8663619159     0.4291059511     -3.7875390155
C     0.3985268     -3.7107731697     -2.6721489408
C     -0.0468248844     -2.5952890018     -3.4162333216
C     -1.4038945428     -2.0952451554     -3.230063941
C     -1.6646745733     -0.708851882     -3.5820050461
C     -2.9037465038     -0.16938698     -3.2634465168
C     0.9509948449     -1.7028656292     -3.8842470117
C     -3.793780849     2.9378338719     0.926378643
C     2.9028603049     -0.5274871483     -3.4681614766
C     4.4318967238     -1.2792837861     -1.7521387845
C     3.9421358116     -0.2079979896     -2.5714559679
C     4.0278220201     1.1659954668     -2.0932251711
C     2.997203455     2.1407824829     -2.4821870191
C     2.8521617542     3.2992236148     -1.7063313515
C     1.7671023068     -3.8018830083     -2.2156599925
C     3.7784357527     -2.5618098305     -1.7304074977
C     2.7425641677     -2.8654433109     -2.6363745631
C     2.3302780683     -1.8412751453     -3.5394550418
C     3.8564015284     -1.6990226357     1.7295818921
C     2.7351085268     -2.4857143719     2.2561073977
C     4.3424884064     -2.0246689334     0.4580752046
C     3.7075455468     -3.0129913301     -0.3605702219
C     2.6202885738     -3.7699637788     0.1190841548
C     1.7343445171     -4.286132238     -0.8770455071
C     5.0624356237     0.282187034     -0.0095067413
C     4.7317261515     0.6344148461     1.3414782983
C     4.108820155     -0.3207763576     2.2016276677
C     3.2652398355     0.2265767957     3.1848537912
C     4.8924332936     -1.0161123981     -0.4324543322
C     3.5300972178     3.4493774334     -0.4467554726
C     4.7305035742     1.3846416077     -0.8815464035
C     4.4021496151     2.4789565333     -0.0188820126


