100

 C     -4.5066129593     -1.6767375083     -1.1661242158
C     -4.5339486608     -1.8000801377     0.2481902999
C     -5.0109738195     -0.6732584399     0.9789938009
C     -4.627119807     -0.461777542     2.3235363335
C     -3.7871207708     -1.3867734905     2.9552343773
C     -3.6452679398     -2.4556629451     -1.9489768229
C     -2.6792932087     -3.3450714802     -1.3783332274
C     -2.6247210423     -3.4591150251     0.0585492049
C     -3.5864076313     -2.7228962118     0.8678705787
C     -3.2785654627     -2.5063634472     2.2361045026
C     -0.3461951871     -4.3777860458     -0.1399981274
C     -1.3768223751     -3.9224007859     0.6813474057
C     -0.3768420989     -4.1897910787     -1.5604004962
C     -1.5020899953     -3.6313395179     -2.1852035366
C     -1.2209451543     -2.8482779316     -3.3423607609
C     -3.3507205989     1.3973723318     3.2858335727
C     -2.5264420741     0.4405446629     4.0012452071
C     -4.3936720758     0.9639294624     2.501615622
C     -2.7434210208     -0.9173622945     3.845839554
C     -1.6091148343     -1.7895691669     3.7172103996
C     2.1060087019     -1.6205336248     3.2505850143
C     3.1114139891     -2.3554771649     2.5972806263
C     0.7521457922     -2.1470503097     3.242592615
C     -0.2836971862     -1.3247854189     3.8062131014
C     -0.0649267484     0.11075034     3.9663310202
C     -1.1860219559     0.9474612544     4.0293981105
C     -0.9943825833     -3.4611983952     2.0200071437
C     -1.9581103741     -2.802663031     2.7645254219
C     1.0336754808     -4.3404640414     0.2849354154
C     1.4140453155     -3.8192641179     1.5419961279
C     0.3981085466     -3.2505105175     2.3894179008
C     2.7459448471     -3.3898468481     1.6635745728
C     -0.4084274253     4.2905123355     -1.1298147924
C     -1.5856218704     4.0629815841     -0.4105213518
C     -4.6563750841     1.6293344849     1.2481522183
C     -2.4905880876     2.4806128846     2.8455027256
C     -2.6729091431     3.1331101037     1.6163786485
C     -3.8398786913     2.7277023544     0.8058283926
C     -1.5020968002     3.743961124     1.0027570394
C     -1.1786734045     2.2209140646     3.3528486181
C     1.2253921752     2.02925892     3.0093884073
C     -0.0243090861     2.7202405264     2.7407429368
C     -0.1860544398     3.5990616158     1.6013497051
C     3.592705596     1.7211424143     2.4945356486
C     2.4271827238     2.504360692     2.3673966431
C     2.3261582128     3.4627496101     1.2728515849
C     1.0124382251     3.9570527663     0.8598163969
C     0.8565318239     4.368350905     -0.4794228292
C     2.3221000028     -0.1830154507     3.4412867961
C     1.1904548899     0.7032830375     3.5763851169
C     3.540127799     0.3819148144     3.0254803473
C     -3.803620154     2.9467661326     -0.5818163936
C     -2.6759144096     3.5918033358     -1.1863329634
C     -0.2017360713     3.7130904731     -2.4356175758
C     -1.168344535     2.8947797911     -3.0246923232
C     -2.4676120979     3.0101099397     -2.4694034285
C     -0.7500305534     1.6635348482     -3.6776635505
C     -1.778376218     0.6620144748     -3.8978589929
C     -1.3422233152     -0.6418802946     -4.1600281438
C     3.0773582601     3.6093665349     -1.0787374984
C     1.8490004084     4.0448256882     -1.4634314961
C     1.1897328784     3.4433161825     -2.5864793707
C     1.6500968795     2.2228451208     -3.1229968612
C     0.6589052748     1.2951560357     -3.6500485232
C     3.3819301731     3.4700009479     0.322356776
C     -4.33346717     1.9940376884     -1.5193492491
C     -4.9263772786     0.7921402081     -1.0603790455
C     -5.1179846417     0.6430104568     0.3347210492
C     -4.7022980203     -0.3764152812     -1.8277690584
C     -3.4659987252     1.9945605843     -2.6612958775
C     -3.1477980996     0.8201473638     -3.3626389876
C     -3.8980011866     -0.3484912407     -2.9916563381
C     -2.1186935769     -1.8036818551     -3.7491627432
C     -3.3221314836     -1.6625091605     -3.1300513061
C     4.711602025     2.0034352217     -0.9288925598
C     3.7259663593     2.5574474326     -1.8154563329
C     2.9742708449     1.7528650977     -2.7145608856
C     5.0979603756     0.6894666749     -1.0659436606
C     4.3911479398     -0.152164188     -2.0066068065
C     3.2963494581     0.328182961     -2.771181716
C     2.2988429546     -0.6203678492     -3.2043074845
C     1.0430063451     -0.1012905131     -3.7672798676
C     0.0263482203     -1.0147058998     -4.0673457712
C     5.2000608882     0.4220372567     1.3758492464
C     4.6488619663     1.7548284417     1.5093735607
C     4.4910447626     2.5615202025     0.4003352043
C     5.4351328682     -0.1026941939     0.0985948632
C     4.6107611731     -2.2946204135     0.8172717833
C     4.3223503321     -1.7423012097     2.1240991381
C     4.5621899666     -0.4016108271     2.3738230722
C     5.0732254891     -1.4664889163     -0.1948690137
C     1.8365726773     -4.0843987834     -0.8578874721
C     3.0710829446     -3.4128825177     -0.7815344473
C     3.6144701718     -3.2826095644     0.5224902215
C     0.0951603856     -2.3924513546     -3.6145422762
C     2.3777332425     -1.9946182917     -2.7587919249
C     1.2198924665     -2.8613957903     -2.9125236623
C     0.9592031552     -3.8907278901     -1.9767274268
C     4.4141999057     -1.4893135018     -1.4943351085
C     3.3887122195     -2.3972198786     -1.7941917653


