100

 C     5.2836385744     0.6242888762     0.4149396178
C     2.7624548235     3.8440354377     -0.5412602459
C     3.8290914859     3.0089970296     -0.1621066096
C     4.3732582657     2.2017890186     -1.196883351
C     5.1285566547     1.017574711     -0.9055894807
C     2.0934160258     3.694551125     -1.789248616
C     2.3846318651     2.5926445916     -2.628007893
C     3.6007795743     1.9397980329     -2.3793897571
C     -0.0259391902     2.4734209529     -3.1858967803
C     1.2966972992     1.8736216348     -3.2553227421
C     -1.1013151408     1.697649002     -3.5899021812
C     -0.3317048238     3.6123069945     -2.3135397939
C     -1.6769582001     3.7459064699     -1.7224484234
C     0.7496065032     4.2043687182     -1.6516000465
C     -1.7762028423     4.3374797862     -0.4484067237
C     5.0043231513     -1.732621365     -0.2360779376
C     4.8075639393     -1.3098038545     -1.6177871792
C     5.1839596822     -0.7861664349     0.755704598
C     4.8290839613     0.0328663803     -1.9277489037
C     3.7991160124     0.5711630495     -2.7711672047
C     0.2634321273     -0.3615990296     -3.6794990541
C     -0.9573101583     0.297445409     -3.8379557547
C     1.4469787265     0.4568011933     -3.5096086649
C     2.7112672324     -0.2080983899     -3.2290629314
C     2.7256608452     -1.6395014517     -2.9659352302
C     3.8158033307     -2.1557972417     -2.2102228028
C     2.4498846139     -3.9513455466     -1.3206164274
C     4.1544450493     -2.8585843321     0.0104851293
C     3.5943927308     -3.2249317083     -1.2685357798
C     1.471719874     -2.4036973251     -2.9837948802
C     0.2153653584     -1.76763403     -3.3038392915
C     1.415066501     -3.6191233413     -2.2743825189
C     1.8263248915     -4.3919774378     -0.1067510872
C     2.1484659231     -3.7712409686     1.1291463933
C     3.3569003865     -2.9651494374     1.1848266941
C     3.4614690292     -1.9150211973     2.1846949247
C     4.4436928412     -0.9071737057     1.9876269154
C     4.2445422936     0.4381014943     2.4684600815
C     2.289679347     -1.5980598658     3.0182300436
C     2.2163197979     -0.3183282191     3.5862466421
C     3.1610146061     0.7163101501     3.2661066862
C     0.4787001974     -4.6970102559     -0.4632518314
C     1.0490069148     -3.5247478811     2.0665269127
C     1.0477399324     -2.3474011176     2.9139255764
C     -0.4875982714     -4.6925161953     0.4963569336
C     -0.1941587     -4.1245485391     1.7969053482
C     0.1865768556     -4.1375559279     -1.7677713545
C     -1.055193359     -3.5367764384     -2.0416196249
C     -1.0511912805     -2.3654329414     -2.8972922782
C     3.8956837802     2.555879856     1.2235083157
C     2.7727822517     2.8721921632     2.1184410255
C     4.6612548686     1.390946644     1.4777386155
C     2.4684489928     1.9578011585     3.1391892781
C     0.3421701622     3.6277351568     2.2880938549
C     1.6877261826     3.7540400844     1.6960906094
C     1.788334716     4.3363854067     0.4179112774
C     -0.7377673434     4.2176353232     1.6219929561
C     -0.6118872653     4.7150629701     0.2859664248
C     0.6248946158     4.7114911175     -0.3191121739
C     1.1073347569     1.7203266305     3.5779146456
C     -1.2902658111     1.899527182     3.2420925583
C     0.0337611666     2.4957370541     3.1684503358
C     -3.5941986468     1.9648874658     2.3656949118
C     -2.3765340364     2.6166393002     2.6097184967
C     -2.0827576522     3.7119249319     1.7632170506
C     -0.2622045373     -0.3350506908     3.6820028275
C     0.9600708583     0.322250552     3.8358199845
C     -3.81875468     -2.131282785     2.2253652006
C     -2.7274050702     -1.6122125088     2.9774295627
C     -2.7096802491     -0.1790313305     3.2304786937
C     -1.4438447413     0.4848839051     3.5063529041
C     -3.7957188041     0.5995109791     2.7670996952
C     -0.2174146635     -1.7438061304     3.3162463453
C     -1.4214302259     -3.5997004873     2.2998401388
C     -1.475247553     -2.3791804712     3.0006801745
C     -5.1241266156     1.0358599786     0.8984092646
C     -4.3660755626     2.2203373649     1.1813646094
C     -3.8200355937     3.0189641955     0.1409314804
C     -2.7514579264     3.8541721253     0.5142040492
C     -5.2801434011     0.6336455829     -0.4193178667
C     -5.0063090876     -1.7192655731     0.2482844047
C     -4.808546238     -1.2871800262     1.6269803001
C     -4.8269449536     0.0576854254     1.9274853309
C     -5.1837454177     -0.7794038076     -0.7501410426
C     -2.4570305018     -3.9362271197     1.3484333776
C     -4.1590540334     -2.848909124     0.0096597125
C     -3.5998419613     -3.207535245     1.2912314105
C     -3.1573235866     0.7006331764     -3.2710460999
C     -2.2150452416     -0.3384292226     -3.5838897878
C     -2.291383374     -1.6139580537     -3.0068798229
C     -4.2414902303     0.4305750127     -2.4714676582
C     -4.4437729724     -0.9108099428     -1.981175348
C     -3.4639010876     -1.9223056011     -2.1711371861
C     -3.3617680662     -2.9656022933     -1.163897174
C     -2.1552152018     -3.7740988284     -1.1025389781
C     -1.8345093007     -4.3868576503     0.1377067023
C     -3.8876932054     2.5562517348     -1.2414594054
C     -2.7640663293     2.8636335268     -2.1385891077
C     -2.4618712911     1.9413718466     -3.1528702649
C     -4.6559751496     1.3913431625     -1.4874837243


