100

 C     2.3602040717     -3.9646615017     0.4789179505
C     3.0107379662     -3.5013012287     -0.68417531
C     4.1620872163     -2.6730259399     -0.475602948
C     4.5386923097     -1.6695534933     -1.4436391747
C     3.8134502882     -1.5323739509     -2.5979667216
C     0.9758591458     -4.2983657002     0.4705363744
C     0.184553433     -4.1807294391     -0.6745022413
C     0.8005035557     -3.6269606862     -1.8767291759
C     2.2024170945     -3.3184211564     -1.8793961261
C     2.6552659947     -2.3623579986     -2.8392264426
C     -1.4499093084     -3.1376506771     -2.7068397381
C     -0.0737860091     -2.9490945109     -2.8170983153
C     -3.1350022151     -3.4681040364     0.9600641361
C     -1.8094827508     -3.9188721521     0.8605819608
C     -1.2520280254     -4.1533936338     -0.4707216314
C     -2.0490484983     -3.8356574094     -1.5835543567
C     3.3103940725     2.1306976367     -2.7403275678
C     4.0736105918     0.9625555996     -2.5221570759
C     3.5880983615     -0.210451146     -3.1655126035
C     0.3644727247     -1.7700500981     -3.5381161867
C     1.7471055532     -1.5678868024     -3.5757347078
C     2.3068364588     -0.2470261024     -3.7673432431
C     -0.5351523101     -0.6521505938     -3.7698550487
C     1.4488505032     0.8763647265     -3.8210393225
C     2.0290151377     2.0878280612     -3.3792361476
C     4.8214040917     0.8214674446     -1.2567291378
C     5.0629221374     -0.4986151015     -0.7550142471
C     3.2378410504     3.1803583479     -1.7394597078
C     3.8978893781     3.02433829     -0.5359887069
C     4.717957237     1.8524073428     -0.2949751372
C     1.9396003417     3.7638934522     -1.7608608828
C     3.2377826266     3.3869488742     0.6805773029
C     1.9381863623     3.9193876832     0.6975988928
C     1.2873963567     4.1781666367     -0.5795311213
C     -2.2583167814     3.6214380551     -1.6920661269
C     -0.8792351942     3.804932039     -1.8094505312
C     -0.1436553367     4.322906332     -0.6569890461
C     -0.8368748009     4.4685991952     0.5596971049
C     -2.3748129984     -2.1610970398     -3.1778542442
C     -1.9402385641     -0.8584334883     -3.5654732941
C     0.0090119209     0.701689402     -3.7954046129
C     -2.8173103731     0.2696339346     -3.2986259421
C     -2.2321142293     1.59747279     -3.1648865723
C     -0.8190279847     1.8052241433     -3.3869284682
C     -0.1883468695     2.9957005704     -2.8032272333
C     1.1981368503     3.1116097936     -2.8192860512
C     -2.9330671023     2.5680083578     -2.4094329975
C     4.622077462     1.5546451806     1.1060164847
C     4.7505656575     0.2200157326     1.5912008876
C     5.0236928803     -0.795781431     0.6256261866
C     4.0129638275     -0.1245752949     2.7501383158
C     3.6824963884     2.4709548931     1.699305664
C     -0.2187719736     4.0496134881     1.8027679729
C     1.1176012517     3.6623422914     1.8784699131
C     1.497073308     2.6320471582     2.8457800267
C     2.8257927553     2.0632354538     2.7469978484
C     3.0775726309     0.7861785115     3.3142861455
C     3.4974651994     -1.4720485278     2.9407975147
C     3.7134067765     -2.4801699239     1.9490589813
C     4.4852100058     -2.1504283357     0.8019445352
C     2.6877468525     -3.4402867953     1.7812066669
C     2.2696285452     -1.3832768482     3.633447279
C     -1.6803476422     0.0317028158     3.9332834632
C     -0.3878494599     -0.4663152191     3.9788944287
C     -0.1590432662     -1.8617609816     3.5866309122
C     1.2031697397     -2.3020861818     3.413522051
C     1.4781590353     -3.388246233     2.5529416746
C     -1.2314380482     3.4468366293     2.6190628546
C     -0.9052466432     2.3457435931     3.4346581533
C     0.4646430105     1.9056752822     3.5419291761
C     0.709033816     0.5169057833     3.945033381
C     2.0003147166     0.0199203268     3.8641181537
C     -1.9564182569     1.4257780578     3.6769650454
C     -2.7779069099     -0.7437143527     3.4424083941
C     -2.5586694166     -2.0408583656     2.9278099284
C     -1.226522301     -2.5995791876     2.9569332968
C     -0.9030259511     -3.6223452224     1.965310068
C     0.4304051952     -3.9650514407     1.7767068872
C     -3.5006969517     -2.4941251748     1.9770782464
C     -3.7206282968     0.1523891224     2.8591820985
C     -4.5195447685     -0.2273069845     1.7639098452
C     -4.4933756422     -1.6202578305     1.4357095898
C     -2.485731278     3.5188543398     1.9208630349
C     -4.2601997158     2.1267827776     0.8395023081
C     -3.4586692831     2.491906838     2.0137704877
C     -3.19555254     1.4969772064     2.9926073066
C     -5.0961680077     0.2650520119     -0.5707767152
C     -4.809644558     0.7653946522     0.7208693714
C     -4.6245666503     0.9541799518     -1.7451806122
C     -4.0835135501     2.2104069256     -1.6326649859
C     -4.0159819608     2.8548835445     -0.3492491492
C     -2.9513071386     3.8215239022     -0.4487857446
C     -2.2277083743     4.1868990288     0.6687458246
C     -3.6136142772     -2.3700168369     -2.4675235497
C     -4.4295741593     -1.2930965453     -2.199134449
C     -4.0686796838     0.0146633874     -2.6764146132
C     -4.7856245985     -2.0793138493     0.0975146945
C     -3.9468185951     -3.2266531045     -0.1883162809
C     -3.3925340189     -3.38505902     -1.4577221524
C     -5.0492586172     -1.1476700203     -0.8858924224


