100

 C     4.2878513907     0.6285618046     1.9364114678
C     3.9116147083     1.9368889157     1.625841773
C     4.2561986226     2.380910611     0.3176855858
C     3.5422779977     3.4612319583     -0.2979113231
C     2.5960216186     4.1339128965     0.4228441222
C     3.5625830755     -0.1393892689     2.9180107882
C     2.3090996105     0.2954517462     3.4080569792
C     1.8910780784     1.6678351767     3.1240600417
C     2.76366779     2.508430416     2.3160488578
C     2.22899795     3.6873357913     1.7607505842
C     -0.4569668995     1.0101495423     3.7210636644
C     0.5138775818     2.0366440942     3.3202569177
C     0.008175697     3.2861066106     2.7580944425
C     0.8893489623     4.0724351501     1.9915167484
C     -1.8245901848     1.3195972937     3.6391594839
C     1.3180625873     -0.7261253752     3.7352237457
C     1.6662089998     -2.0898356786     3.5498992662
C     -0.0794424513     -0.3949836388     3.8031239116
C     -0.9011527617     4.7728556694     0.4729626675
C     1.4077286905     4.6563213787     -0.2208108772
C     0.4260832632     4.7830189285     0.8016021466
C     -1.8605923644     4.2339001778     1.3899650621
C     -2.3158046827     2.521596116     3.0193731602
C     -1.4229000402     3.4877249227     2.5191363815
C     -1.3049078988     4.4612612371     -0.8711839171
C     -0.3697715675     4.0920372099     -1.8512756209
C     1.0552180204     4.2665642335     -1.5390761557
C     2.0579549257     3.5108928232     -2.2849542192
C     3.2960018776     3.1490558572     -1.6837284456
C     1.6142452212     2.6645261107     -3.3111050055
C     -2.602778316     3.8521425775     -0.7806301208
C     -4.0369728485     1.9727254182     -1.2361311134
C     -3.0119880541     2.8476827271     -1.6856875302
C     -2.0953671159     2.4057499598     -2.7174681294
C     -0.8058219163     3.0983964736     -2.8400261516
C     0.203346972     2.4898901727     -3.5995229531
C     -3.5489227547     2.2148615223     2.3771586808
C     -3.8471932698     2.7699623256     1.0944915079
C     -2.9732980347     3.7799008495     0.6112788993
C     -4.4641291486     1.9414349359     0.1286754956
C     2.2676317756     1.427608498     -3.5964704894
C     3.3440386417     0.9347554811     -2.82069321
C     3.9097114021     1.8784967179     -1.9264444738
C     3.4459106651     -0.5008187791     -2.539210143
C     4.2330558716     -0.9228940589     -1.3913696958
C     4.0658135802     -2.2387956493     -0.9125575013
C     1.2952798985     0.5326151427     -4.1359726382
C     0.1818060172     -1.5662778895     -4.0885689277
C     1.3937657796     -0.8499000834     -3.9297556167
C     2.4537521146     -1.3962675309     -3.0902246519
C     2.213726814     -2.6924221489     -2.4753483543
C     3.0426005966     -3.0895768852     -1.4218179409
C     -4.1601428357     0.6520648805     -1.7584763487
C     -3.2885456791     0.1664530879     -2.736856683
C     -2.2720655225     1.0790605975     -3.2786225848
C     -1.1846716223     0.4965462526     -4.0246151616
C     0.0252736331     1.2040079869     -4.1704678053
C     -1.0828746192     -0.9061806039     -4.1541990394
C     4.734575311     0.0696350217     -0.4359979554
C     4.5502902516     1.4374047138     -0.7096154755
C     4.2692797828     -2.5899181587     0.4838329284
C     4.5757036894     -1.6031780479     1.4002030956
C     4.81285434     -0.2673213233     0.9438862556
C     3.3216930951     -3.6261439146     0.8286254629
C     3.8494905806     -1.5262374395     2.6573989834
C     2.9201672691     -2.4877950032     2.971750653
C     2.6806538316     -3.6008249704     2.0718191968
C     1.2225644307     -4.3428237873     -0.2679597071
C     2.5665604225     -3.945313264     -0.3371775301
C     1.3043719251     -3.9394563188     2.1583041444
C     0.5667569048     -4.3627026294     1.0382329089
C     0.4299083607     -4.19556692     -1.4751290776
C     -0.0153495438     -2.858397477     -3.4889278532
C     0.9256499891     -3.3785975228     -2.5899532402
C     -0.9511411515     -4.4045630217     -1.3498205187
C     -2.9302736308     -3.9481077276     -0.2116256127
C     -1.6037320624     -4.4716015563     -0.0536228077
C     -0.8771303455     -4.2816410834     1.1344704003
C     -3.5466317704     -3.3211433304     0.8442493297
C     -2.8357093655     -3.129659216     2.0765272674
C     -1.5032392303     -3.5293974128     2.222338765
C     -1.4228882584     -3.0277142524     -3.2951280839
C     -3.0714456513     -3.415313438     -1.5537892154
C     -1.8872681384     -3.8044339499     -2.2591819077
C     -4.7255700062     -0.1985648981     -0.723367772
C     -4.3879906211     -2.179122147     0.6123076489
C     -4.4508951752     -1.5860231365     -0.6779661177
C     -3.7018103441     -2.1727941071     -1.787377873
C     -3.1439203565     -1.2949006105     -2.8334241189
C     -2.0789046369     -1.7860642375     -3.599433141
C     -3.8826035664     0.8472884819     2.6789278947
C     -4.3277378156     -1.3616802295     1.792009386
C     -4.5651182968     0.0343465878     1.7352695309
C     -4.8599106774     0.5876606586     0.4485826237
C     0.6898161932     -3.0388612825     3.1313437641
C     -0.6655149027     -2.7354808558     3.113019882
C     -1.0779140347     -1.4271660858     3.58729719
C     -3.3178780734     -1.9114557643     2.6630325949
C     -2.4621620462     -1.0589474652     3.4026114291
C     -2.8226565185     0.3047724328     3.4691171185


