100

 C     4.6452756866     1.4165749987     -0.4937866103
C     3.9890812236     2.4679371719     -1.1769088767
C     4.8722394259     -0.8924725571     1.133168274
C     4.6517805846     0.3213596846     1.7118350983
C     4.7039905028     1.520618309     0.9230979735
C     4.172407526     -2.0427042961     1.6268491373
C     3.9416646749     2.5176989782     1.6105934941
C     3.3599980044     3.5994240964     0.9185926921
C     3.4548420536     3.5958483854     -0.5080348791
C     2.2028123338     4.1759632597     1.5072721604
C     3.2172456366     1.841196791     2.6707104008
C     1.9153265604     2.2226719128     3.0274342974
C     1.5191958882     3.5075139314     2.5531640999
C     -0.8480713081     2.9492934143     2.8608721583
C     0.1378085969     3.8670178382     2.4839066438
C     -2.1504143622     3.2107639812     2.351902726
C     2.1881533525     -3.99864837     1.5107733293
C     1.9889420156     -2.9025078665     2.3928197903
C     3.0246089789     -1.8927214784     2.46481166
C     2.6951327847     -0.5628753295     2.9621590623
C     3.6134571496     0.4728240344     2.6977419352
C     0.9230816794     1.1977167134     3.3194981583
C     -0.4852662143     1.5777879802     3.2489294181
C     0.297292232     -1.2245021963     3.2304673036
C     1.3139919622     -0.1972483811     3.2743226907
C     1.2024074601     4.8768996438     0.7169405226
C     1.2526419622     4.8037445129     -0.7052979428
C     2.3428393599     4.1033830745     -1.2910799802
C     0.0202984198     4.7733223367     -1.4205652198
C     -0.0515186522     4.7840333426     1.3844760479
C     -2.3699014681     4.0988629378     1.2602692347
C     -1.2840092461     4.8013185498     0.6690236931
C     -1.2341895235     4.8636913871     -0.7537447074
C     -0.1633715162     3.846623284     -2.5128147103
C     0.8281322249     2.9320587903     -2.8826417224
C     2.1288327663     3.2054762235     -2.3757540419
C     3.1174405724     2.1868727093     -2.3102297786
C     1.4847522191     0.5554390775     -3.21013665
C     2.844225591     0.8881925673     -2.7222502705
C     -1.5425247664     3.4781207031     -2.5792358625
C     -3.2303146816     1.8005469395     -2.6837536351
C     -1.9307516901     2.1872147329     -3.0434707591
C     -0.9322271553     1.166123924     -3.3275625582
C     0.4737596465     1.5553709472     -3.2599939932
C     -1.3145693255     -0.2308199582     -3.2715039661
C     1.0964371468     -0.8360641284     -3.2860592281
C     2.1019164497     -1.8022827941     -3.0803960786
C     -3.478748875     3.5784244498     0.4812297962
C     -3.38389578     3.5714653269     -0.9453849909
C     -2.2302565148     4.1504933583     -1.5385666774
C     -3.9588969257     2.480831345     -1.628922102
C     3.4252356612     -1.4622816139     -2.5759063852
C     3.7599832576     -0.1470528692     -2.2569436188
C     4.6499215261     0.1008632168     -1.1180166151
C     3.9111143918     -2.5825674936     -1.826832442
C     4.6216046857     -2.3406304242     -0.6513696054
C     5.0004249013     -1.0079642092     -0.3131411052
C     2.9025401892     -3.6135279583     -1.8730177439
C     4.2011814174     -3.0154277402     0.5710376927
C     3.2383479703     -3.9897691379     0.5268180403
C     2.6430293355     -4.3710657908     -0.7439572241
C     1.3039925023     -4.7968191733     -0.4905863989
C     -1.0370905197     -4.6753569176     -0.879782668
C     0.2501021994     -4.5105328173     -1.3973691416
C     -1.9729219617     -2.9332199452     -2.3689289949
C     0.4536047569     -3.5151618715     -2.4424646445
C     1.7895528986     -3.1185736601     -2.6726627952
C     -2.1654226507     -4.0236578931     -1.4783644475
C     -0.6162516722     -2.6090465447     -2.7986219382
C     -3.6181197927     0.42959841     -2.7001101019
C     -2.6934465212     -0.6024737408     -2.9564678583
C     -0.2915835949     -1.2514408671     -3.2196701798
C     -3.0147658427     -1.9304017087     -2.4487654459
C     -4.1616423337     -2.0808938625     -1.6096321223
C     -2.6180580652     -4.3812789731     0.779209745
C     -1.2764263927     -4.8007653449     0.5291340221
C     -0.2243357182     -4.500957617     1.433632481
C     1.0638572168     -4.6619069386     0.9173143406
C     -2.8822414967     -3.6165720254     1.902339056
C     -4.6090581728     -2.363809435     0.670849715
C     -4.1844700917     -3.0455190815     -0.5462709593
C     -3.2156750506     -4.0135578801     -0.4944828841
C     -3.897123522     -2.5922134047     1.8481452941
C     -4.6555167126     0.2794506308     -1.7130271404
C     -4.9960437796     -1.0361692627     0.322254669
C     -4.8685327695     -0.9311668775     -1.1249129655
C     -4.0060717559     2.4525015351     1.1588847482
C     -3.4181481975     -1.4631618061     2.5884526783
C     -3.7609553987     -0.1525378863     2.2592590504
C     -4.6523716626     0.0810281791     1.1184558088
C     -4.6557859638     1.3918400498     0.4839924429
C     -4.7151067184     1.4844772752     -0.9336596294
C     -0.4339694112     -3.4987417034     2.4709450366
C     0.6302968596     -2.5833286793     2.8200073533
C     -1.7723326345     -3.1085793234     2.6980762451
C     -2.092778797     -1.7910921167     3.0955444099
C     -1.0932550345     -0.8171477707     3.2936481043
C     -1.4901013904     0.5713121636     3.2068925516
C     -2.8515800967     0.8919030569     2.7164623099
C     -3.1327507139     2.1856335598     2.2943427033


