100

 C     -3.1941358054     -2.4206370383     2.3592606286
C     -3.8767240256     -2.3332454355     1.1307992941
C     -4.6521345824     -1.1621256513     0.9421639602
C     -5.021470616     -0.7214012204     -0.3674278032
C     -4.5825605029     -1.4294646187     -1.4767848046
C     -2.0692222956     -3.2777324882     2.5217724046
C     -1.4645397908     -3.9249585488     1.4256451019
C     -2.0672628862     -3.7520700208     0.1026796804
C     -3.3128254621     -3.034198016     -0.0185217022
C     -3.6954823212     -2.5628564161     -1.3065063271
C     0.099561553     -4.3276345435     -0.9322441517
C     -1.2251499975     -3.8845307173     -1.0786590691
C     0.702376076     -4.4981638496     0.3868751802
C     -0.0422635835     -4.2477202217     1.5528791217
C     0.7100144423     -3.7636081087     2.6570711421
C     -4.6460310125     1.4118509927     -1.5171578065
C     -4.1998702018     0.6798309699     -2.6853957785
C     -5.0247393876     0.7320998878     -0.376893124
C     -4.1624254791     -0.7097018137     -2.659214971
C     -3.0315811889     -1.3874190662     -3.2094767171
C     -3.1045770795     1.4057237431     -3.2537736568
C     -1.985991342     0.7635759208     -3.8044011741
C     -1.958234964     -0.7022887872     -3.7959010595
C     -1.5162279896     -3.15517627     -2.3023566958
C     -2.7848219175     -2.5666117407     -2.4008372197
C     1.1111109091     -3.9951444065     -1.8610358804
C     0.8913747984     -3.0982671754     -2.9461843054
C     -0.4615928257     -2.6634424638     -3.1706294193
C     -0.6980731005     -1.4171013015     -3.8941440246
C     0.4057115208     -0.6711502837     -4.310973585
C     -2.3311875769     3.929504901     -0.1071016753
C     -3.4521169124     3.0869829721     -0.1062497475
C     -3.8413467474     2.5959021628     -1.3883857706
C     -2.9302477092     2.6275994587     -2.4942108906
C     0.3904072251     0.7810614824     -4.2586139913
C     -0.7305700882     1.5052182958     -3.8559581282
C     -0.5291942058     2.7310844764     -3.0953272408
C     -1.6738104974     3.2651554594     -2.3974455097
C     -1.473275178     4.0529390347     -1.2425891776
C     -3.7512521248     2.3022355715     1.0999703151
C     -4.5795668376     1.1777577619     0.9281021389
C     -1.5400324755     4.1235962385     1.0734172718
C     -1.7825889892     3.3435055922     2.2395440061
C     -2.8308129746     2.3407691825     2.2403080783
C     -0.6781678021     3.2027677555     3.1074635276
C     -0.2227609004     4.4770695752     0.6726513546
C     0.8987005092     4.2227790893     1.4850074825
C     0.6247254666     3.7099124172     2.7762619099
C     2.8158702711     2.6538695341     2.8668938903
C     1.5810582616     2.8648743955     3.4344555679
C     3.2925150731     3.1167054125     -1.2062710517
C     2.2148743908     3.7997468644     -0.6417116382
C     2.1725872026     3.9388415837     0.8302530832
C     3.1487840298     3.2661802644     1.5920526182
C     1.7101593472     1.2278556637     -3.9841209483
C     1.9336252776     2.3613734069     -3.1655411952
C     0.8037115883     3.1103235508     -2.6662280782
C     0.9790912787     3.8900521152     -1.4351348702
C     -0.1609094149     4.3489341925     -0.7694951412
C     3.1670114379     2.3919753625     -2.4518580042
C     -0.5177275971     2.0254593948     3.9096074768
C     -1.45318724     0.9885489978     3.873239696
C     -2.67407405     1.1765223281     3.0837839581
C     -3.4741499182     0.0043021865     2.80654427
C     -4.4001570238     0.0118399736     1.7378781564
C     -3.0117625299     -1.2695496929     3.2035684745
C     0.4886317212     -0.5860618337     4.2871451597
C     -0.9549702179     -0.3400859151     4.2128385905
C     -1.7952650994     -1.4380607665     3.9411734817
C     0.9709110096     -1.8835747897     4.0224997597
C     0.0856112749     -2.9399799823     3.6565087198
C     -1.2691538949     -2.7209631957     3.6011533064
C     1.4317368675     0.4915440189     4.1066559
C     2.7275322901     0.2510999583     3.4598263161
C     0.8978764112     1.7919184947     4.0871179917
C     3.4030859542     1.3479556078     2.9058691592
C     4.2371502772     1.2029777694     1.7314306306
C     4.4396248319     -0.0387482239     1.0896212942
C     3.8701019914     -1.2252885237     1.7094837056
C     3.0537486248     -1.0654646363     2.92375047
C     2.2149000855     -2.1124083529     3.3142660099
C     4.1052329671     -2.3754844846     -0.461306468
C     3.7244235663     -2.422246273     0.917436274
C     4.6264089709     1.2155666436     -1.0651179256
C     4.2543228311     2.4078469935     -0.3987248127
C     4.1295558657     2.4198217188     0.9794220978
C     4.54541603     -1.1993090049     -1.0864637257
C     4.7342212417     -0.0059670158     -0.3465330118
C     2.5647588005     0.0714983725     -3.9218979652
C     4.0384544355     -1.176284959     -2.4653313997
C     3.6988623228     0.0560538538     -3.0817638389
C     4.0135075618     1.2549914454     -2.3858294105
C     2.3523693459     -3.962121814     -1.1135310335
C     3.3681570676     -3.1276854311     -1.4700417677
C     3.2597848309     -2.3389415739     -2.6724908913
C     2.0244894219     -2.3008626371     -3.4015389741
C     1.7474315665     -1.0989116397     -4.0877188133
C     2.0510836647     -3.2919438538     2.4998796962
C     2.7565673377     -3.4428733208     1.2940036424
C     2.0799465363     -4.1954749209     0.2853903771


