100

 C     4.9469978375     -1.0454266189     0.7360137611
C     4.3707941208     -2.3391345456     0.6988686578
C     4.0427430953     -2.8700751521     -0.5739385597
C     3.5642051095     -2.7324850798     1.802049913
C     3.1757923183     -1.7589560476     2.7810764035
C     3.6611994595     -0.4405263525     2.7650937153
C     4.6982764778     -0.1515397488     1.8219995611
C     2.4720967116     -3.6443971311     1.6326084054
C     2.1668264529     -4.211152564     0.3746270546
C     3.013218683     -3.8376609034     -0.7206336897
C     -0.246243813     -4.3508724577     1.1343729599
C     0.7789928678     -4.5889143943     0.1168281191
C     -1.5989886335     -4.4062144603     0.7419227373
C     1.420910455     -3.2455960363     2.5363138942
C     -0.9195275502     -2.6468670906     2.8908146314
C     0.0695631163     -3.5254160314     2.2924365778
C     -3.2298267456     -1.7872096022     2.7747207362
C     -2.3027022299     -2.8192467611     2.4962936825
C     -2.6215501253     -3.6967259077     1.4282538564
C     3.079002492     1.9380250008     2.7869414093
C     2.7555898161     0.6269563359     3.1915908066
C     0.3792340202     1.3835017395     3.472391981
C     1.3697363797     0.3342466982     3.5421000256
C     0.9118645551     -1.0423683054     3.5431188369
C     1.8347967861     -2.0534071319     3.194629786
C     -1.4521553979     -0.3233880641     3.6697158401
C     -0.4974811563     -1.3838984792     3.4801389329
C     -2.8244482499     -0.5954241729     3.3987556494
C     -1.9772820662     -4.4348438841     -0.654131742
C     -1.0005784512     -4.4167879195     -1.6089538676
C     0.3575776807     -4.6248975113     -1.239043222
C     1.1402080217     -3.9603741444     -2.2512344355
C     2.4244589355     -3.6000293673     -2.0137083221
C     -3.1681657499     -3.6649541636     -0.8356617178
C     -3.2618039565     -2.7262521621     -1.9161496009
C     -4.1773586948     -1.6847196136     -1.7565510076
C     -4.3538865037     -1.4833127039     1.8791105583
C     -4.4746291275     -2.1842892447     0.6569038462
C     -3.637712651     -3.314053178     0.459931615
C     -4.8477155402     -1.4348291133     -0.4910821812
C     3.9262045718     1.6964026858     -2.1181858747
C     3.6901400812     0.3435141383     -2.447955191
C     2.0527251202     -1.4058554002     -3.1607070933
C     2.9327473475     -2.3662807017     -2.5605686826
C     0.2717394211     -3.1029989384     -3.0388009415
C     -1.7721008284     -1.1548763536     -3.2577347317
C     -0.3813750931     -0.7879601514     -3.510267579
C     0.6605888118     -1.7812265341     -3.3841577665
C     -3.2812189447     2.2403187432     -2.6184573823
C     -2.4183398269     1.2685136149     -3.230850278
C     -1.0315438222     1.6300649728     -3.477138336
C     0.0094364686     0.6109102808     -3.56194818
C     1.4072865603     0.9788744757     -3.3663533732
C     2.428223629     -0.0246592093     -3.1066193378
C     -0.648298916     2.9610088094     -3.1677987478
C     1.7265988825     2.3549092858     -3.0329817012
C     2.9286271474     2.6817848487     -2.367072383
C     -2.096563946     -2.485715932     -2.7720221712
C     -1.0531336323     -3.4232036456     -2.6892970569
C     -2.7811268707     -0.1196520226     -3.1151269057
C     -3.9862797234     -0.4420682815     -2.4221951206
C     4.4294161555     -0.6413047655     -1.6643231714
C     4.0087243728     -1.9851513092     -1.7340424979
C     4.6533817286     2.0871715934     -0.9351695963
C     5.1654408156     1.1177423923     -0.0900131456
C     5.1048402862     -0.2504970113     -0.4742680863
C     3.9816425173     3.2472694508     -0.3822505036
C     4.907310982     1.1908962466     1.340824651
C     4.1468423216     2.218570307     1.8463041532
C     3.7103938642     3.3062645468     0.9827658584
C     0.6981088609     4.2266254872     -1.7639827291
C     1.7647414817     4.2540110944     -0.8489338925
C     2.9614936203     3.6549715217     -1.2991622064
C     0.6895357636     3.2898516381     -2.8693141814
C     -0.6349336594     4.4491192356     -1.354709505
C     -1.0072241475     4.4236615905     0.0191311379
C     0.0489193749     4.2121164294     0.9911912289
C     1.4338682249     4.2550334709     0.5688967597
C     2.4201778564     3.745806944     1.4443913904
C     -1.6003161467     3.2006927776     2.5122769603
C     -0.2669748028     3.4887742854     2.2141953438
C     -3.2784981415     3.6479649617     -0.7163693641
C     -2.7445422535     3.4367508578     -2.0558789294
C     -1.4732385288     3.813577894     -2.3465142654
C     -2.6835783784     3.5218516126     1.5978310586
C     -2.3897135657     4.0526232815     0.3261969403
C     -4.7058493101     0.5444311864     -1.6570836609
C     -3.741099356     2.5960457767     1.8165592089
C     -4.5292389273     2.0789853266     0.7518725326
C     -4.2905176418     2.6770329     -0.5173888459
C     -4.3313941028     1.8543006533     -1.7345007095
C     -3.3118763527     1.7308607194     2.902917457
C     -3.739287465     0.4392218046     2.9687599383
C     -4.6427693944     -0.0982222087     1.9671952035
C     -4.9844067043     0.6773365563     0.817260159
C     -5.132744491     -0.0428784186     -0.4034205201
C     2.0593187728     2.9061289569     2.5562963559
C     0.7217473336     2.6620306312     2.8794169446
C     -1.9582618658     2.0568215807     3.272422822
C     -1.0123742851     1.0543315872     3.6325129319


