100

 C     1.50728235     -4.2427029215     -1.3097248189
C     2.4387905835     -4.0230261747     -0.2812872152
C     3.5984003049     -3.2938451846     -0.654055229
C     4.4058359587     -2.6511323095     0.3227415109
C     3.9774174485     -2.6350541234     1.6522536178
C     0.1718110085     -4.5906061962     -1.0383580589
C     -0.3781182482     -4.4999358133     0.2745745464
C     0.5133181431     -4.0767732295     1.3390642482
C     1.933267212     -3.9525917319     1.0810789792
C     2.7305591561     -3.2362078056     2.0138703027
C     -1.4418841798     -3.2507739936     2.5830466486
C     -0.055951461     -3.3540521548     2.4796165339
C     -2.3314207206     -3.7049257528     1.5590571292
C     -1.8192997889     -4.2812717746     0.3761225462
C     -2.6025732345     -4.062158569     -0.791121837
C     5.1874009494     -0.3301943638     0.486547589
C     4.7390797228     -0.3038263172     1.8817153695
C     4.975671166     -1.4545721173     -0.2761676366
C     4.1231705097     -1.4099331999     2.4238320812
C     2.9301932226     -1.2253861762     3.1991641702
C     0.2464232402     1.3752464123     3.5928856519
C     -1.1455169005     1.3901720605     3.7729088797
C     0.9324022288     0.0939674544     3.6932744646
C     2.3391774224     0.0466014753     3.3931099013
C     3.0203498886     1.221758332     2.8638404759
C     4.2353429073     1.008901396     2.1561750775
C     0.7420895594     -2.3589574141     3.1980596179
C     2.1165396435     -2.3881913963     3.0035796974
C     -2.0592829116     -2.1354693966     3.2594462133
C     -1.2783248319     -1.0758910213     3.7816125695
C     0.158724583     -1.1331421587     3.7023963
C     -1.9147088706     0.1705990873     3.8816162948
C     3.8661411942     2.9695596931     0.7656759459
C     4.9819274028     0.9689735114     -0.0782692848
C     4.5665895535     1.8222818854     1.0082970583
C     2.2583281257     2.4387067093     2.585345943
C     0.847426189     2.5133113258     2.9197027602
C     2.7700086226     3.3415298866     1.6245837285
C     3.5586826546     3.356582487     -0.5770769401
C     3.7534974677     2.4204462684     -1.6437437537
C     4.4245585706     1.1523641957     -1.3750287375
C     4.0436342036     -0.047595467     -2.125744406
C     4.4050338992     -1.3082917969     -1.5946926696
C     2.8098404461     2.4642477704     -2.6954154292
C     2.3953072506     4.1868094891     -0.5081859897
C     0.1368021452     4.5785563478     -1.2733511873
C     1.4762463611     4.2488332584     -1.5825420029
C     1.6992231202     3.3804879714     -2.6862406895
C     -1.9768153139     2.3924778064     3.2137797926
C     -1.44994039     3.3885616394     2.3676700158
C     -0.0080275036     3.4926746632     2.2653120014
C     0.538511578     4.284675208     1.1633984283
C     1.9118025812     4.1729395138     0.8542693737
C     -0.3076836036     4.684391471     0.1026026089
C     2.3728917645     1.2631062297     -3.3384815021
C     2.9020118935     0.0021027228     -3.0393780605
C     2.0452568721     -1.1465651125     -3.271178504
C     2.4683277046     -2.4030754213     -2.6928930541
C     3.6005802126     -2.4588537503     -1.8406154121
C     1.5298086784     -3.4294559816     -2.519079706
C     0.9973986764     1.4322438507     -3.7174796657
C     -1.3295412691     0.6537867758     -3.5806588192
C     0.0991685401     0.3656120688     -3.7810495506
C     0.6465654615     -0.9749342717     -3.6451160909
C     -3.5231455938     -0.2224787236     -2.9293126769
C     -2.2303672597     -0.4637977276     -3.4567638603
C     -1.7169693954     -1.8295830296     -3.4185806419
C     -0.2798271286     -2.0777878568     -3.508861501
C     0.2067831123     -3.3111194168     -3.0072066633
C     -0.9525234597     4.0604597033     -2.0313124437
C     -0.7480997834     3.0242315399     -2.9810006221
C     0.5915519203     2.7520046539     -3.335272369
C     -3.0190134135     2.1382085702     -2.4529642611
C     -1.7449363374     1.9698128873     -3.1383955219
C     -3.8906314568     1.0457606058     -2.4023684084
C     -0.609520176     -4.1665245968     -2.1853081406
C     -1.9380343175     -3.914787473     -2.0691267786
C     -2.522028792     -2.816463312     -2.7954807719
C     -4.7759322305     1.6786489772     -0.1959671626
C     -4.7710096472     0.812029023     -1.2612857877
C     -4.85668559     -0.5943879307     -1.0241248579
C     -4.2258211727     -1.2238637076     -2.1617376682
C     -3.7131709508     -2.4829884529     -2.0707871041
C     -2.1097887901     4.0397100268     -1.1761599538
C     -3.9918016644     2.8940833426     -0.2708185799
C     -3.1689519599     3.1534178479     -1.4012907195
C     -3.2781634469     1.7877976808     2.991189693
C     -4.0444432089     2.1646606469     1.9200631232
C     -3.5628740491     3.2192524071     1.0507773349
C     -2.3137630641     3.8537930504     1.2834475725
C     -1.7048682338     4.415421455     0.1412802457
C     -3.3217108197     -1.8954240447     2.6524446571
C     -3.8935486581     -0.6038130629     2.5977496442
C     -3.22061117     0.3973288334     3.3584240289
C     -3.7194583964     -3.1746711339     -0.7939853041
C     -4.7452040359     -1.1463541271     0.2778085765
C     -4.1532452848     -2.4883757737     0.3805313742
C     -3.4755390935     -2.844276992     1.5667400878
C     -4.7642086852     1.1712151785     1.1417331896
C     -4.6542869172     -0.2172849379     1.4070204489


