100

 C     -5.163234066     1.4201757148     0.9817024391
C     -4.8199083793     0.6928036032     2.1953225153
C     -5.4600360295     0.7148221747     -0.1736985137
C     -4.8189488802     -0.6881991052     2.2028770429
C     -3.7554088359     -1.3845804284     2.8752855101
C     -2.4127980783     3.3066745747     2.2232096396
C     -4.3340432958     2.5964352723     0.9143269505
C     -3.6013310541     2.6414143676     2.1506591015
C     -1.3192350777     -2.7424434787     3.0099848569
C     -1.3431702645     -1.4189479371     3.481669396
C     -2.6240566056     -0.7129534985     3.4213062222
C     -2.6250524362     0.7339625848     3.4133884873
C     -3.7573309666     1.3979894945     2.8600533546
C     -1.3230425532     2.7606401863     2.9798535786
C     -1.3451448714     1.4423578956     3.4660068101
C     -1.8705953416     3.9380330224     1.0518534952
C     -2.424833084     3.7112848049     -0.2153126455
C     -3.7220080012     3.0216749057     -0.2985579371
C     -4.0676117709     2.2907691752     -1.5106765979
C     -4.9266013751     1.1564733004     -1.4321634724
C     -3.1318778923     2.3075075917     -2.5848099217
C     -0.450293664     4.0338766793     1.2510573367
C     0.474739733     4.0846698317     0.1876831258
C     -0.0288728932     3.8530626753     -1.134606771
C     -1.4693812373     3.666247109     -1.3320601239
C     -1.8687005176     3.0058270873     -2.4887534404
C     2.2719822002     3.3411117329     -1.8092605361
C     0.9037011765     3.3195892508     -2.1042282283
C     3.4504816731     2.630343612     1.9586490907
C     2.1920272463     3.2356624273     1.8057679116
C     1.8559703615     3.8647096695     0.5370854414
C     2.7673304686     3.7080704537     -0.524739201
C     3.5780018364     1.4164453149     2.6961075533
C     -0.1261275496     3.3291076724     2.437534924
C     1.1843284684     -1.4179146346     3.2787909754
C     -0.0628635149     -0.7020401522     3.5585216432
C     -0.0638463978     0.7281131442     3.5506886875
C     1.1823565006     1.4426110715     3.2631296145
C     1.1291111556     2.7407857265     2.6393605814
C     2.4345582455     0.7364231936     3.2128037665
C     -2.933676728     1.1827206634     -3.4207350476
C     -3.6448681388     -0.0264635899     -3.2007463419
C     -4.6687305257     -0.0218303039     -2.2255825111
C     -2.9320067906     -1.2369981924     -3.4075014653
C     0.4701203244     2.3633596997     -3.0943262483
C     -0.9121824721     2.3111401633     -3.3254950914
C     -1.5380726799     1.1698600285     -3.8454147798
C     1.2935233686     1.2203461901     -3.4254517648
C     -0.7967974287     -0.0288338212     -3.9948034085
C     -1.5364160978     -1.226849306     -3.8323079867
C     -3.1286588905     -2.3528385486     -2.5593103889
C     -4.0644163031     -2.3256296384     -1.4854113976
C     -4.9249788574     -1.1917321356     -1.4193107462
C     -5.4590221076     -0.7370611479     -0.1657545484
C     -5.1612510533     -1.4293046385     0.9973009304
C     -2.4196786964     -3.7295770834     -0.1745746112
C     -3.7178027409     -3.0427287776     -0.2653603523
C     -4.3304229122     -2.605066639     0.9427966365
C     -1.8651326538     -3.9416545541     1.0950014419
C     -2.4082139899     -3.2982507991     2.259373044
C     -3.5976699897     -2.635485246     2.1795482471
C     -1.8645103223     -3.0483034268     -2.4556207915
C     2.2766381627     -3.3703639286     -1.7725158752
C     0.9083290923     -3.3539729182     -2.0676884385
C     -0.0235199873     -3.8780816211     -1.0922754061
C     -1.4642838065     -3.6954448819     -1.2917568824
C     0.4804002999     -4.094475615     0.2324702354
C     -0.4447077788     -4.0333363338     1.2952376806
C     2.6932302097     -1.2688331112     -3.0216633353
C     0.4734273255     -2.4092554159     -3.0682038473
C     -0.9089471765     -2.3614941454     -3.2999258591
C     3.1886849572     -2.4114269578     -2.3529012701
C     1.2952505299     -1.2687990149     -3.4118296712
C     3.1853634672     2.3771388713     -2.3791193742
C     2.6914969757     1.226603956     -3.0353202484
C     0.635978427     -0.0265209796     -3.7547821506
C     3.4306040998     -0.0199058903     -2.9014464817
C     4.6549251536     -0.0150434452     -2.1692601562
C     4.0660923916     -3.112921996     -0.3148165905
C     2.772478631     -3.7225358548     -0.4840479651
C     1.861321933     -3.8687894024     0.5794333061
C     4.4391527061     -2.6238155191     0.9265868953
C     3.4541121512     -2.6167259592     1.9873861908
C     2.1964982578     -3.2254173658     1.8411496787
C     5.5946613949     -0.7252243906     -0.1330590257
C     5.0788714594     -1.1707575933     -1.4186107335
C     4.3490215364     -2.3429250727     -1.506576149
C     5.225265706     -1.4160212562     1.0265071776
C     4.3457881043     2.3195284476     -1.5321069162
C     5.5936643149     0.7187012644     -0.1409683465
C     5.0772628624     1.1494110956     -1.4313163232
C     4.7192008251     -0.6813748579     2.1675076688
C     4.7182490666     0.6988385772     2.1599478535
C     5.2233036846     1.4216424707     1.0109653964
C     4.4355203885     2.6271818154     0.8978323598
C     4.0617851703     3.1021414837     -0.3488520798
C     -0.1215256321     -3.3151564026     2.4739217233
C     1.1328907189     -2.7229152746     2.6692804345
C     3.5799405272     -1.3946423128     2.7115036765
C     2.435555104     -0.7105854473     3.220727367


