100

 C     -2.1888176573     -3.829485903     -1.7202100959
C     -2.9837010878     -2.782508734     -2.2086988171
C     -4.0297092741     -2.3644172604     -1.3347164096
C     -4.6236732182     -1.0635200175     -1.4442682787
C     -4.1628270777     -0.2014106745     -2.4107628447
C     -0.8341546163     -4.0091285901     -2.2007549175
C     1.1385233664     -3.0448529258     -3.1143187286
C     -0.25954286     -3.0698377629     -3.1018190144
C     -0.9957840299     -1.8810666141     -3.5092641868
C     -2.399665876     -1.8142254715     -3.1442228714
C     -3.0385055994     -0.5732635619     -3.2504660739
C     -3.8671299438     2.986545067     -0.5509226236
C     -4.4820780032     1.7571823043     -0.8962061216
C     -4.1040188178     1.2170105186     -2.1554431085
C     -2.9790894275     1.7237369443     -2.8721910119
C     -0.838808737     2.9453667512     -2.7577541086
C     -2.2569223687     2.8503162453     -2.4427552696
C     -2.8061557353     3.5409046099     -1.3275918909
C     1.3384978061     3.864968781     -2.1327532088
C     -0.0523723308     3.911116605     -2.0074051221
C     -0.923736172     0.6203529346     -3.7343756266
C     -2.3050511021     0.6198965286     -3.5175837855
C     3.3076758779     0.4454595482     -3.3275602013
C     1.9510429812     0.5434967484     -3.7463555754
C     1.2591463651     1.8078274264     -3.5141080363
C     -0.18056309     1.8539377364     -3.4469458148
C     1.98547896     2.8703483449     -2.9195370435
C     -0.2626416243     -0.6720144275     -3.831747338
C     1.8530903981     -1.907700545     -3.59397805
C     1.1917676095     -0.6908826327     -3.8794900343
C     -4.856333814     0.828084487     0.1770505369
C     -4.9276262062     -0.5596888157     -0.1156356609
C     -3.5837086178     3.3226259696     0.832778891
C     -3.8268192721     2.4006533149     1.8243292239
C     -4.4889557363     1.1515486394     1.5084095541
C     -2.3819363826     4.1061349076     0.8925518044
C     -1.4302150141     3.9302608349     1.9383049796
C     -0.1196926369     4.346977578     1.6440675383
C     -0.59435908     4.508494428     -0.7786772954
C     -1.9422510464     4.2942166059     -0.451164116
C     0.2703616318     4.7362269591     0.3231370064
C     -3.9606237239     0.1623326217     2.3904835431
C     -3.8640645198     -1.1960485478     2.0362977861
C     -4.4727032085     -1.5474525111     0.8018724665
C     -2.7778539156     -2.0078093249     2.5814245263
C     -2.4452201781     -3.2537673321     1.9114616394
C     -1.2121779911     -3.8727240124     2.2150562867
C     -2.9393534878     0.7882337219     3.2040753184
C     -1.8429073476     0.0682432829     3.6785944084
C     -1.8043540001     -1.3792007941     3.4494093364
C     0.5709946081     -1.3053171596     4.1488026314
C     -0.5599478053     -2.0539075211     3.719480203
C     -0.2825598027     -3.2821666774     3.0948063491
C     -1.613641239     2.8614502839     2.9059298868
C     -2.8485831771     2.1662565381     2.8654654178
C     1.019245573     3.7517477276     2.2853756272
C     0.8821143227     2.6695815039     3.1552259132
C     -0.4711235536     2.1879689352     3.4776476545
C     -0.6297350242     0.8305918736     3.9411112401
C     0.5369390484     0.0979794619     4.2487942395
C     -3.0239187163     -3.5526721792     0.5930398236
C     -3.9899349019     -2.6906519527     0.0553013995
C     -0.4404814061     -4.6001615657     1.215644455
C     -0.9427817149     -4.7676135034     -0.0438236505
C     -2.2538989417     -4.2698561433     -0.3658382348
C     1.9303899428     -3.6841268528     -2.0843759419
C     -0.0649599203     -4.625249936     -1.1800260938
C     1.3214263459     -4.3375634963     -1.002570011
C     1.9273642505     -1.6997774359     3.7866997083
C     2.1634182846     -2.7469231163     2.8638322493
C     1.0668040276     -3.5977977639     2.6156927359
C     0.9661280242     -4.3321605949     1.4253645804
C     3.0080908341     -3.2553555896     0.5195001294
C     1.8759816566     -4.1288677044     0.3263621768
C     2.7158994638     -0.5220831112     3.7572838149
C     3.7648914318     -0.4267693366     2.8551055797
C     4.0205589519     -1.4770794607     1.9136583834
C     3.1873583436     -2.6100103095     1.8251611588
C     3.6762065881     -2.6732230484     -0.6496052263
C     3.1323283686     -2.9442380816     -1.9232636736
C     3.219320195     1.9455398955     2.4063503108
C     2.0560072372     1.8187110354     3.3113973689
C     1.8696422346     0.6095522424     3.9816700819
C     4.0464210287     0.8275809061     2.2291460999
C     3.371537307     3.3572305617     -1.0792553279
C     2.2241226713     4.1909522977     -1.0181416796
C     1.6827507552     4.5190457773     0.2078261166
C     3.8847943411     2.707994212     0.074790753
C     3.2150113024     2.9540942898     1.3518175996
C     2.1673554917     3.8874593466     1.3932269501
C     4.6549009821     0.8615451558     -1.433405586
C     3.9275383213     1.4687097483     -2.5337921639
C     3.2942354572     2.6608145733     -2.3491717947
C     4.6682826543     0.5410128136     0.9418135895
C     4.5862422918     1.4440202017     -0.1332031846
C     3.1448096239     -1.9411907538     -2.973868088
C     4.6293827214     -0.8721938719     0.7479500849
C     4.4797872983     -1.4510423674     -0.5256436328
C     4.6018966569     -0.5473368618     -1.6222102991
C     3.8546973973     -0.7864069722     -2.8407912879


