100

 C     3.0495892601     -0.818626698     3.148574139
C     4.0621390604     -0.2804816798     2.3376187066
C     4.6527841475     -1.178429825     1.3946470404
C     2.556628259     -2.1518644093     2.9790684791
C     3.0369722964     -2.9983555935     1.9452985309
C     4.1378731682     -2.5086980422     1.2001264909
C     4.036210153     1.1566400554     2.0764236719
C     4.6855574996     1.604791291     0.9020392321
C     4.2397288063     2.7772681059     0.2101856816
C     2.9504296034     1.9790922258     2.629199199
C     2.7031836377     3.2271955446     2.0446422711
C     3.3228969306     3.6084812097     0.8011060297
C     0.8330539403     -0.8283508667     3.8036587834
C     1.9615374935     0.0028598604     3.6457068922
C     1.8307407436     1.364790295     3.3390725265
C     -0.4730430082     -0.342315702     3.7314306717
C     -0.6637949386     1.0895236662     3.5613890021
C     0.4861386576     1.9357975832     3.3288581457
C     0.2805437749     3.2323224321     2.6972536153
C     1.4001386804     3.8448218833     2.0978043901
C     -3.0379632931     0.6014350618     3.1766509961
C     -2.0006932634     1.5672799375     3.2483635026
C     0.2256491437     -3.0347817187     2.812567719
C     1.1794932213     -2.1576180314     3.3628152292
C     -1.6512430914     -4.28353617     1.1361555459
C     -2.1381719616     -3.3161220355     2.0460060846
C     -1.1680214109     -2.6393969038     2.8806331614
C     -1.5001741125     -1.3167929684     3.4118501242
C     -2.7815964693     -0.8059621288     3.2053098056
C     0.7120388886     -4.0023544825     1.8350211773
C     2.3303503031     -4.3022744089     -0.0058582166
C     2.0946779234     -3.933706824     1.3406611426
C     -0.2608045572     -4.6038578575     1.0208651224
C     0.0150543327     4.8598543261     0.3725517313
C     2.3401667597     4.2935608176     0.0022367159
C     1.2561811572     4.6088204422     0.8841473114
C     -1.0503428231     3.6479689431     2.2550996372
C     -1.1418025033     4.5172382196     1.1312167219
C     -2.2018881829     2.832044719     2.5734494817
C     -0.249559173     4.6010648621     -1.0263408796
C     0.7224940888     3.9973389776     -1.8397994479
C     2.1046185356     3.9255347615     -1.3444547872
C     3.0452052241     2.9880318002     -1.9484162625
C     4.1444505633     2.4958585456     -1.2024584399
C     2.5636696253     2.1426386655     -2.9825320798
C     -1.6406414298     4.2839206956     -1.1426253014
C     -2.1291233135     3.3176163107     -2.0528265509
C     -1.1599235489     2.6386795256     -2.8867566015
C     0.2345978376     3.0308795333     -2.8176955907
C     1.1868309199     2.1515411313     -3.367261806
C     -2.7774465082     0.8089374568     -3.2125935215
C     -1.4947157838     1.3168359161     -3.4182143857
C     -3.3306504389     3.6776367182     0.5306735291
C     -2.2116548216     4.3825657231     0.1830042434
C     -4.0325510517     2.9045959061     -0.470317611
C     -3.415806296     2.6953844451     -1.740567381
C     -3.7474995987     1.4880486695     -2.3786601215
C     -3.3875449643     2.9993968995     1.7870085468
C     3.053706015     0.8082765237     -3.1516869586
C     4.0644435423     0.2678182808     -2.3400094146
C     4.6564610699     1.1644156255     -1.3966139577
C     5.0924561882     0.670112632     -0.1224989485
C     5.0908212106     -0.6851258731     0.1208416842
C     2.9477861944     -1.9892078066     -2.6323856479
C     4.0350455696     -1.1692414943     -2.0788377357
C     4.6825234857     -1.6188746852     -0.9039847497
C     2.6972690787     -3.23674544     -2.0480050944
C     3.3152143321     -3.6194428132     -0.804028894
C     4.2335198071     -2.7903257508     -0.2124529734
C     -0.4695816716     0.3400153656     -3.737062432
C     0.8376703002     0.8230641566     -3.8083563279
C     1.9641392403     -0.010721392     -3.6495999696
C     0.4841024823     -1.9402832096     -3.3338068732
C     1.8300117956     -1.3723501489     -3.343058005
C     -0.6637252655     -1.091386741     -3.5671570911
C     -4.1860038894     -0.7758410539     -2.3372801442
C     -3.0370477656     -0.5978761897     -3.1841170122
C     -2.0019377738     -1.5660850339     -3.2550888379
C     -4.3343572326     -1.9305278116     -1.6145846799
C     -3.3931048313     -2.9950293151     -1.7947304922
C     -2.2065067683     -2.8303875346     -2.5803186616
C     -1.0570547909     -3.6489410806     -2.26114795
C     0.2750922792     -3.2363382181     -2.7023488654
C     1.3928540758     -3.8513936214     -2.1021011106
C     -4.7309872347     1.8628965079     0.2011400819
C     -4.9875145802     0.612093592     -0.4174296285
C     -4.5766907818     0.5030816423     -1.7739029916
C     -4.5791057636     -0.4960035294     1.7653305793
C     -4.1859033066     0.7820258729     2.3289857176
C     -4.331098301     1.937046367     1.6061886296
C     -4.7350856085     -1.8554606218     -0.2098275914
C     -4.989201539     -0.6040773277     0.4085598953
C     -2.2215288061     -4.3808789609     -0.1898852457
C     -3.3386630605     -3.6733998778     -0.5383525996
C     -4.039513321     -2.8987559785     0.4621337487
C     -3.4232069427     -2.6909511322     1.7328240971
C     -3.7526016213     -1.4828599892     2.3706803687
C     1.2462826775     -4.615058859     -0.8885471081
C     -1.151305921     -4.5179966304     -1.1373305879
C     0.0042193395     -4.8632552624     -0.3778382663


