100

 C     -4.566003509     -0.985120821     -1.9298941101
C     -4.1842992006     0.1835408766     -2.6984169246
C     -5.0505295253     -0.8313519688     -0.6410506498
C     -4.3705905966     1.4489211408     -2.1830384443
C     -3.381027297     2.4614801855     -2.4264404193
C     0.057779511     -4.6195284803     -0.3005261506
C     -1.3209521712     -4.3125807063     -0.3012665413
C     -4.6327264343     -1.7538538413     0.3717848151
C     -3.611752173     -2.0313355139     -2.2182303831
C     -3.2047917641     -2.9766220277     -1.2633485419
C     -3.8030678768     -2.8643574602     0.0689203646
C     -1.9023403262     -3.6090293489     -1.435922351
C     -2.6725472081     -1.5000359403     -3.1654381114
C     -1.378072775     -1.9981854811     -3.2755320504
C     -1.020753514     -3.1729637365     -2.4951333985
C     1.3175354669     -2.8037016849     -3.2361495837
C     0.3759309508     -3.5787100563     -2.4917284567
C     0.8863618458     -4.3334267317     -1.4191233712
C     -1.1433793258     4.0449374516     -1.8028521749
C     -0.9832877171     3.0064684309     -2.7469770377
C     -2.1432701646     2.1810921782     -3.0696580684
C     -1.9290223343     0.8343137727     -3.5663363746
C     -2.9707454007     -0.1179291569     -3.4087772039
C     0.5524983253     1.242699965     -3.610593809
C     -0.5925599492     0.3431661776     -3.7895336597
C     -0.3720779518     -1.0826973365     -3.7842857665
C     0.9473742263     -1.5742803553     -3.8279723841
C     -3.1166648174     -3.4184235291     1.1694426031
C     -1.9072777147     -4.1790763259     0.9844067818
C     2.1822705474     -4.1132815872     0.4822126389
C     0.8624746966     -4.4840721693     0.8831815629
C     0.3139100499     -4.0328052148     2.0924866807
C     -1.1026216096     -4.0551163357     2.1649154204
C     4.0102490876     -2.5586715413     0.5816893509
C     2.9722709207     -3.2004502807     1.2660741677
C     2.7099068036     -2.6959489205     -2.8509374012
C     3.1524654644     -3.2806512895     -1.639614453
C     2.2332198833     -4.107527949     -0.9355531416
C     4.1261318066     -2.5959016297     -0.857619286
C     -1.8135381039     -3.1605505268     3.0394806901
C     -3.0469241426     -2.750453922     2.4253935564
C     -3.5420834435     -1.423392347     2.5768843263
C     -4.4304528626     -0.9983434371     1.5821817029
C     -1.1187802744     -2.2606296307     3.7976559881
C     1.0806230181     -3.0625942608     2.8998017155
C     0.3296895214     -2.2427065553     3.7699047949
C     2.3751822271     -2.5856516775     2.4598878981
C     -1.5966763262     -0.8994499204     3.9466227281
C     -2.7498542743     -0.4196161644     3.2763112675
C     -3.7675769497     1.389430766     1.8568411758
C     -4.6188480074     0.4006861154     1.2995183155
C     -5.1226704619     0.4910514827     -0.0481599126
C     -4.8412914226     1.6037644819     -0.8095060125
C     -0.468810021     -0.0838877833     4.1434310579
C     -0.4602362133     1.2670715849     3.7819939817
C     -1.6505485021     1.825315466     3.1537001763
C     -2.7854244329     0.9729192518     2.8703367351
C     -0.2695636453     3.75689392     2.5319368496
C     -1.5207184288     3.1076370277     2.471643307
C     -2.4361287385     3.4722611986     1.3956246604
C     -3.5671118384     2.610696947     1.0896093469
C     -4.1411213822     2.6992481513     -0.2133340419
C     3.2086668121     1.5785172084     2.9918270418
C     2.0650343252     1.0418966676     3.5973529365
C     0.8542348029     1.8736467175     3.6682614649
C     0.8985616138     3.1634769825     3.1308035356
C     4.5139032582     -1.2882308072     1.0327674591
C     3.9538489446     -0.6552896857     2.1758385398
C     2.8431920252     -1.2787712747     2.8775750799
C     1.9585403955     -0.4077773697     3.6362019026
C     0.730052052     -0.9146972296     4.0517669629
C     4.1132516747     0.7454888426     2.2424103191
C     -3.4052183167     3.3260034148     -1.2821369602
C     -2.3231264481     4.1080706362     -0.9958473142
C     -1.9517713956     4.3323108481     0.3749854081
C     1.6121045849     4.3767455962     1.2611505684
C     0.2090947607     4.5711856287     1.4356084696
C     -0.5934477233     4.7608526541     0.3402960517
C     2.1695754787     4.1162480809     -0.0145842168
C     1.2553226373     4.0915910899     -1.1656600934
C     -0.055328486     4.5183510903     -0.9775329023
C     3.9338975744     2.7771483369     1.1232235648
C     3.183082266     2.8586530568     2.3528701738
C     2.0576317987     3.6364911695     2.4180680554
C     3.720267198     2.6801184805     -1.2784027213
C     3.4044636196     3.3475746513     -0.0655861315
C     4.9693116176     -0.5545846111     -0.0967681409
C     4.5041278551     1.5085850551     -1.3169125164
C     4.9141756443     0.862658555     -0.1082291129
C     4.5999448318     1.5081295885     1.1107920428
C     3.1842499525     -1.4037450131     -3.2434631506
C     4.0632685789     0.7110545787     -2.4542502135
C     4.1471409017     -0.7039486721     -2.4622648565
C     4.641622286     -1.3363127931     -1.2729455194
C     1.486129398     3.176873689     -2.2881634239
C     0.3603117673     2.5308405835     -3.0017305618
C     2.748723266     2.6019850504     -2.3712541976
C     2.9763684888     1.3941913407     -3.0822517924
C     1.8935997884     0.686967093     -3.6728923164
C     2.0766686458     -0.700012157     -3.8309078798


