100

 C     1.151114585     4.2521580825     -1.281870584
C     2.0498556835     4.1509247016     -0.2012625335
C     3.3046481058     3.5594740315     -0.4975132981
C     4.1101256903     2.9987940649     0.53031369
C     3.6240637347     2.9549266832     1.8386797229
C     -0.2367608049     4.3794022297     -1.0909563629
C     -0.8358986252     4.2609653553     0.1893832378
C     0.0507817785     4.0117962284     1.3157523917
C     1.4872769231     4.0429337842     1.132600059
C     2.3062009603     3.4331259044     2.1232011302
C     -1.8582353571     3.0973594264     2.5365403145
C     -0.4859449113     3.2984595002     2.4674915697
C     -4.1000921703     2.6651855324     -0.8388398065
C     -2.9597053614     3.4871799317     -0.9780698923
C     -2.2452248628     3.9006298682     0.2322183167
C     -2.7481495994     3.4484608847     1.4695211506
C     5.0960750746     0.7617508757     0.7619696084
C     4.5790404598     0.7019817232     2.1306660927
C     4.8263150527     1.8589823395     -0.0226471398
C     3.8420185592     1.7536546889     2.6295017624
C     2.6360529854     1.4663485645     3.351611462
C     0.1647663545     -1.3514947381     3.6322828964
C     -1.2269150064     -1.4831285072     3.750938082
C     0.7380323765     -0.0193885213     3.768759475
C     2.1475172349     0.1486751066     3.5290292514
C     2.9484922338     -0.9636042032     3.0356663796
C     4.1739132147     -0.6481718077     2.3885772512
C     0.3618874102     2.3997030118     3.2466970513
C     1.7321893409     2.5487722649     3.1055415565
C     -2.4149614225     1.9657556385     3.2480720294
C     -1.566241     0.9645425716     3.785384771
C     -0.1367237942     1.1362802185     3.7455287787
C     -2.1011604307     -0.3338657647     3.8580205903
C     4.0453892419     -2.63921228     0.9943458057
C     5.0407202242     -0.5544203244     0.1982850309
C     4.6321891813     -1.4343322556     1.2646780704
C     2.303543571     -2.2403568744     2.7226576862
C     0.8900594405     -2.4310293948     2.9829837396
C     2.9365262652     -3.0978932915     1.7930923886
C     3.8533515128     -3.0582485432     -0.3582448334
C     4.0448805539     -2.1175718999     -1.4239413703
C     4.5895684575     -0.7920174922     -1.129374281
C     4.1672099147     0.3663819358     -1.9220885666
C     4.3642240709     1.6593324483     -1.3747868129
C     3.1917728849     -2.2516145246     -2.5383016513
C     2.755083987     -3.9760652203     -0.3516304018
C     0.5804924336     -4.5267427159     -1.2469027163
C     1.9108566107     -4.1148383518     -1.478849343
C     2.1446543407     -3.2495277068     -2.5862704731
C     -1.9475760437     -2.5387575187     3.1371513661
C     -1.2981232572     -3.4721324344     2.3011255327
C     0.1499204015     -3.4688841802     2.2795507171
C     0.8141825663     -4.2106720094     1.2084046657
C     2.1912258103     -3.9952032887     0.9799484297
C     0.0606850809     -4.6613086188     0.0976808697
C     2.7313128826     -1.101747188     -3.2533906921
C     3.1262699196     0.21143163     -2.9345608177
C     2.2052495684     1.2817566739     -3.2600563202
C     2.4228768641     2.5747501264     -2.6225321591
C     3.4702741447     2.7285982688     -1.679625702
C     1.3586813641     3.4840251618     -2.4940172576
C     1.4186565736     -1.389892878     -3.741892974
C     0.4682936563     -0.3986704658     -3.9494055953
C     0.890447814     0.9838439156     -3.7938020432
C     -1.5005080618     1.6156972202     -3.8321032362
C     -0.1436277523     1.9981179125     -3.7431388856
C     0.0950094503     3.2308707204     -3.0870340224
C     -0.4923981436     -4.0750110612     -2.0744637532
C     -0.2938696032     -3.0632572737     -3.0409011822
C     1.0529186194     -2.724012099     -3.3331872417
C     -1.344383608     -2.0756561147     -3.2844503749
C     -0.9470838142     -0.7996809509     -3.8546739668
C     -1.8960421651     0.2190260814     -3.888570479
C     -0.9053392353     3.8472623079     -2.271558066
C     -2.5275508972     2.3337728452     -3.1628598457
C     -2.2174424064     3.3787418501     -2.2322587637
C     -3.5934164863     1.4096517392     -2.889760358
C     -4.5035656448     -1.8367613696     -0.4166962764
C     -4.4678088814     -0.8805409522     -1.4460579983
C     -4.861784542     0.4395678403     -1.0601374128
C     -4.3762513593     1.5919419599     -1.7811225676
C     -1.6921621557     -4.0852917261     -1.2904253198
C     -3.6565153801     -3.0134736664     -0.4817787267
C     -2.7625249047     -3.2135219164     -1.5598323686
C     -2.6135556337     -2.1871615708     -2.595230267
C     -3.5314271965     -1.0671806454     -2.5640235136
C     -3.1788540436     0.0819346285     -3.2950663177
C     -3.2816859646     -2.0410715136     2.8663012566
C     -3.944157628     -2.4386447079     1.7297503461
C     -3.3202309523     -3.3968734457     0.8498697742
C     -2.0564569464     -3.9662601782     1.1555169551
C     -1.3467423846     -4.4640302329     0.0474748731
C     -3.6701225857     1.6418546483     2.6645548293
C     -4.1301978512     0.3006604647     2.5809279479
C     -3.3666385474     -0.6617237561     3.2983143724
C     -5.0120376652     0.8094313482     0.3093558765
C     -4.5457763359     2.1854948159     0.4355554867
C     -3.8852678895     2.5820084879     1.5762087117
C     -4.7016956009     -1.4828089486     0.9504220224
C     -4.8222702515     -0.1271031155     1.3568391965


