100

 C     -3.4298698327     3.3199187518     -0.0756180198
C     -3.8781463544     2.4229313844     -1.0565788408
C     -4.6480410002     1.3271793624     -0.5677151483
C     -4.7607485721     0.0983659294     -1.3080699326
C     -4.1142735474     -0.017032761     -2.5119421043
C     -2.2471903099     4.1314100191     -0.2954350722
C     -0.1353602608     4.403425174     -1.3603066249
C     -1.4768755298     3.986626897     -1.4725138943
C     -1.8391481108     2.9707002312     -2.4649764193
C     -3.0917513203     2.2624014523     -2.2848018297
C     -3.2778777143     1.0645557772     -2.999468462
C     -2.551425844     -3.3603247719     -2.2061891064
C     -3.5967256735     -2.4271366446     -2.0553858811
C     -3.5270288162     -1.2801096199     -2.9067249966
C     -2.3683163902     -0.9830282344     -3.6647788873
C     1.4495680909     0.7471781682     -4.0412806959
C     0.1884876501     0.1686190184     -4.065194511
C     0.0771256093     -1.2765466469     -3.857693224
C     -1.2392172798     -1.83533296     -3.6749266996
C     -1.3976511504     -3.0742166221     -3.0100845521
C     0.8738294117     3.9301052325     -2.2573177732
C     0.5675854798     2.9249491105     -3.1950789114
C     -0.7915323153     2.3959759628     -3.279663393
C     -0.960051385     1.059267341     -3.8294853683
C     -2.2119706256     0.4625612543     -3.7177295933
C     1.6530184221     2.1156815443     -3.6311972356
C     -4.2279145233     -2.2782959827     -0.7339736004
C     -4.7941367282     -1.0213897796     -0.3850617037
C     -2.1026075478     -4.1814196413     -1.0987197989
C     -2.6694688948     -4.0063819094     0.1551445231
C     -3.7302827512     -3.0434831246     0.3438040926
C     -0.6996864324     -4.3920985867     -1.2131419499
C     -1.8343011546     -4.0171159137     1.3104318395
C     -0.4509696177     -4.2468110463     1.2295814739
C     0.1426144739     -4.4549201876     -0.0885468725
C     3.2573110601     -2.9899976007     -1.6179765076
C     2.0074560268     -3.6228371527     -1.5845737246
C     1.5500606135     -4.1922302201     -0.3122438291
C     2.3447467057     -4.0035477314     0.8323991694
C     2.6227587917     -0.0065825689     -3.721847617
C     2.5173837232     -1.3729777974     -3.3583180368
C     1.2271649962     -2.0238611043     -3.4071849708
C     1.0284486762     -3.2226940454     -2.5899562852
C     -0.2640638533     -3.7180997196     -2.4255617127
C     3.512393959     -1.8704725585     -2.484253503
C     -3.5511060909     -2.4651841828     1.6457242216
C     -3.9240940704     -1.1340210483     1.9382444302
C     -4.6601729233     -0.4715886518     0.9180810781
C     -3.1519398052     -0.3674967554     2.9054029784
C     -3.2633242556     1.0933689453     2.8754793258
C     -2.2764409042     1.8553199227     3.529342607
C     -2.3883728438     -3.053184338     2.2453034291
C     -1.5990983875     -2.3482949723     3.1496594887
C     -2.0138989011     -0.9928775002     3.5365432109
C     0.2999998851     -0.6349737459     4.3610347279
C     -1.0213893873     -0.1574084974     4.1736665923
C     -1.1488846718     1.239169102     4.1288531941
C     1.7485787087     -3.76678646     2.1352871951
C     0.3570977494     -3.7447593475     2.3227066385
C     -0.2139066711     -2.7997062849     3.2934092452
C     0.6740630894     -1.9746364087     3.9999110825
C     -3.9733060648     1.7556304374     1.7756746731
C     -4.6315218031     0.9740362976     0.8124586593
C     -1.8366792695     3.1495290746     3.0414409575
C     -2.4408729625     3.7148725709     1.9551625944
C     -3.5338001415     3.031524434     1.3178345907
C     0.4817747672     4.6383734566     -0.091291729
C     -1.6370342106     4.3917564462     0.9686491798
C     -0.2240432891     4.4778953773     1.1115148069
C     1.4369260935     0.2083705847     4.1930370179
C     1.3009735296     1.5612517186     3.8011370979
C     0.0070956558     2.0959377914     3.937497559
C     -0.3973639677     3.2378703601     3.2077328693
C     1.8000051949     3.2869617271     2.0788801584
C     0.4449575916     3.8197253318     2.2361862777
C     3.3430567134     1.2984142724     2.3993796047
C     2.2272092307     2.1421651799     2.8566380885
C     4.0514234691     1.6992424711     1.2647521233
C     3.658943691     2.8384514035     0.4969231168
C     2.5301956154     3.6180550791     0.8611998964
C     1.8650565272     4.2836371136     -0.198430789
C     3.6800521658     -2.4413324844     1.9674356264
C     2.6120483431     -2.8552247305     2.8300721194
C     2.0789897967     -1.9646730562     3.7303416745
C     4.0982130831     -1.0943339061     1.8956590101
C     3.4529374295     -0.1157018418     2.7921913347
C     2.5334795714     -0.6000623963     3.7321830092
C     4.6678465781     -1.5002496968     -0.4979966526
C     4.030595373     -2.7871415509     -0.4271213804
C     3.5721889418     -3.2608801827     0.7782114903
C     4.6985217696     0.7514542201     0.3731900843
C     4.6770226415     -0.6425634273     0.632450994
C     3.5505349973     0.879716396     -3.0985466526
C     4.6281273251     1.278777997     -0.9386637281
C     4.4002849921     0.4185004948     -2.0609469368
C     4.4253927214     -0.9785443498     -1.8162072609
C     2.1326968938     3.9449013796     -1.5671613106
C     4.0011001404     2.5813766768     -0.8679298947
C     3.173290287     3.049819594     -1.9162808989
C     2.9395499041     2.189972281     -3.0343006359


