100

 C     2.5596932267     -3.8339509546     0.9685841218
C     3.5236516866     -3.5180952077     -0.0154293444
C     4.4238406089     -2.4205086689     0.1339688674
C     2.4947403575     -2.9853569245     2.1621292769
C     3.473537644     -2.0034888717     2.3310069052
C     4.4545319454     -1.7151626362     1.3148543198
C     -1.1576915076     -3.3347169998     2.8263877492
C     0.1882597988     -3.6516736369     2.5553664167
C     1.2288177042     -2.7622043858     2.8527258235
C     -1.5434193633     -2.0634591535     3.3152570446
C     -0.5016645511     -1.0990094945     3.6082179735
C     0.8803194143     -1.470105102     3.4289756615
C     1.8985289559     -0.436185866     3.475349974
C     3.189603549     -0.7734038976     3.027307208
C     -2.200097753     0.6799976686     3.5173200904
C     -0.8585770041     0.3266902422     3.6925422006
C     -3.2030025285     -0.2693494481     3.1140295192
C     -2.9024355931     -1.633416299     3.0012227315
C     -3.7015824205     -2.3605693772     2.0739220124
C     3.7351631481     1.5460346279     2.5323488802
C     4.7372807955     -0.30007814     1.3219056801
C     4.0771549202     0.2226268237     2.4810563328
C     1.5294526439     0.9810644684     3.5334540289
C     2.4881534813     1.9410135914     3.1407511129
C     0.1459737824     1.3791695736     3.5390220786
C     4.0283056789     2.4077655565     1.4290851924
C     4.4512237356     1.8763840414     0.1829597031
C     4.8247420082     0.4601570429     0.12879336
C     4.693579379     -0.2805435718     -1.133296083
C     4.5327607746     -1.6933590836     -1.120542165
C     4.1160810268     0.3797316985     -2.243213854
C     3.0849426112     3.4973967126     1.5237271367
C     2.6866870927     4.1707351949     0.4002200506
C     3.0911802956     3.6809351016     -0.8984044811
C     3.9362516278     2.5398895357     -1.0205892784
C     3.738543511     1.7683279153     -2.1837803942
C     1.3494854697     4.6924495188     0.3271538982
C     -0.9365755739     4.5927153472     1.0067789977
C     0.410657098     4.473076299     1.3746916426
C     -2.5809522963     1.9617008946     2.9964699779
C     -1.6247511273     2.9596986367     2.7427691725
C     -0.2315989343     2.694056928     3.0588000441
C     0.7695623369     3.5729966467     2.4746332633
C     2.1107466242     3.187638629     2.5679870435
C     -1.9748917695     3.9022949041     1.7428872351
C     3.2070047239     -0.285082145     -3.1176348472
C     2.9062099246     -1.6485331259     -2.9981812378
C     3.7052366386     -2.3712849998     -2.0673461868
C     3.1684069588     -3.5474898933     -1.4234746681
C     1.9655770081     -4.0474814891     -1.830106091
C     2.2042538431     0.6624512614     -3.5255437365
C     0.8626775277     0.3085127642     -3.6990426439
C     0.5055258752     -1.11670066     -3.6077851822
C     1.5471233058     -2.0798814602     -3.3101222695
C     1.161183392     -3.3486741516     -2.8150597994
C     -1.8945565107     -0.4528378069     -3.4781453233
C     -0.87652025     -1.4866899141     -3.4267398218
C     -1.2252342989     -2.7759056994     -2.8441928252
C     -0.1848230626     -3.6640828828     -2.5424979542
C     -3.1856882022     -0.7876508368     -3.0284636862
C     1.9795879051     3.8934049342     -1.7668403056
C     1.6292909733     2.9460008277     -2.7621107435
C     2.5853223178     1.9466168632     -3.0109446955
C     -1.5252410834     0.9640507082     -3.5431452812
C     0.2360940203     2.679044769     -3.0768352932
C     -0.1416973608     1.3618948872     -3.5506410724
C     0.2429196152     -4.5248089268     1.380374585
C     1.3596901931     -4.5295417041     0.5292350507
C     1.0842814555     -4.6596267391     -0.8677343613
C     -0.2396267341     -4.5314644575     -1.3632594078
C     -1.3563979812     -4.5318592615     -0.5121070262
C     -1.0810092697     -4.6551707997     0.8854810086
C     -3.1649491263     -3.5399899886     1.4357915645
C     -1.9622022887     -4.0381897186     1.8448545869
C     -3.4698292254     -2.0142761555     -2.3261733837
C     -2.4911941072     -2.9954733547     -2.1525125738
C     -2.5562875033     -3.8382210538     -0.9548430113
C     -3.520193505     -3.5174071004     0.0276199993
C     -3.7308583429     1.5342662447     -2.5448100983
C     -4.0730704909     0.2111810015     -2.487070565
C     -4.7332832217     -0.3057522076     -1.3253855657
C     -4.4507685446     -1.7208323438     -1.3114378325
C     -4.420197852     -2.4204159751     -0.127127722
C     -0.7649181279     3.5609943241     -2.4969684749
C     -2.1061639386     3.1754061285     -2.5884442442
C     -2.4837801244     1.9260650524     -3.1551252489
C     -2.6819444553     4.1691666588     -0.4255007916
C     -1.3446533406     4.6910077286     -0.3549770289
C     -0.4058610652     4.4663719143     -1.4014328151
C     0.9413894654     4.5875817776     -1.0341094824
C     -3.0803115224     3.490417832     -1.5457085607
C     -3.7342029922     1.7795681735     2.1701797286
C     -3.9317808726     2.5454773949     1.0032397261
C     -3.0865182484     3.6857745184     0.8754973849
C     -4.5289959263     -1.6871348116     1.1238268189
C     -4.8206155928     0.4603087808     -0.135994295
C     -4.6895793442     -0.2742465265     1.1296942209
C     -4.111971785     0.3913410302     2.2363777203
C     -4.0238558697     2.4014172233     -1.4457626901
C     -4.4468654864     1.8761935115     -0.1970606779


