100

 C     0.3683937604     4.2962836533     -1.801054598
C     -0.8482268382     3.6852383089     -2.1974441832
C     -1.9815148646     1.6494728089     -3.0947518961
C     -3.1760159542     2.1402832285     -2.5118053551
C     -4.2324268282     1.2584992094     -2.0952046193
C     -4.1928361789     -0.0580728205     -2.4426315536
C     1.6069364865     3.7722838788     -2.1582645406
C     2.9437972973     1.9102057727     -2.8667649864
C     1.7034732106     2.5744147084     -2.916849999
C     0.4975477872     1.8355756695     -3.2468550391
C     -0.783324903     2.4484838702     -2.9580084334
C     0.5947314119     0.3942253298     -3.4756881284
C     -1.8874156616     0.2242302773     -3.392976713
C     -3.0472181639     -0.5696667152     -3.1517886482
C     -4.7305762108     -1.6819235968     0.8137553829
C     -5.0307858041     -0.7160609276     -0.1817155963
C     -4.6809628079     -1.0689844312     -1.5313055104
C     -3.9695388935     -2.254220266     -1.8307693272
C     -2.5631014331     -4.0422873567     -1.0160785736
C     -3.6976835649     -3.220298353     -0.8305744669
C     -4.0695186782     -2.9090307837     0.5044323006
C     3.039575672     0.5382607703     -3.1679702868
C     1.8788917808     -0.2576697653     -3.3979343721
C     -0.603545168     -0.4283317844     -3.4698781328
C     0.7764728042     -2.4780552468     -2.9395924431
C     -0.5054808047     -1.8676487125     -3.2289328937
C     -1.7101484033     -2.6035882175     -2.8880413465
C     -2.9502896065     -1.9389512579     -2.8390767932
C     -1.6107561917     -3.7948522948     -2.1194915881
C     -5.0302392988     0.7108513043     0.1970151114
C     -4.7339727625     1.676784849     -0.7995682474
C     -4.2242879707     -1.263526198     2.1075082186
C     -4.1836917397     0.0530577721     2.4547791489
C     -4.6754532403     1.0638570198     1.5452883595
C     -3.1661237468     -2.1450690961     2.5201535598
C     -1.9695587178     -1.6539849715     3.0986201388
C     -0.83917481     -3.6894937659     2.197083302
C     0.3760949826     -4.3002718831     1.7961486508
C     -3.1580303077     -3.2330721842     1.587701678
C     -1.8389190841     -4.5634234034     0.0714958025
C     -2.0136397965     -4.0021289818     1.3927346851
C     -3.9631799648     2.249254978     1.8420867858
C     -3.6952900023     3.2153961468     0.8408839759
C     -4.0720449704     2.9040418877     -0.4927225986
C     -2.5602076085     4.0376453813     1.0221445127
C     -2.9400961254     1.9342206502     2.8465732234
C     -0.5906653448     0.4241359064     3.4685895312
C     -0.4938296627     1.8634740326     3.2272825259
C     -1.699934377     2.5991403778     2.8909004718
C     -1.6036866962     3.7904310586     2.1219882891
C     3.0515192045     -0.5416350946     3.1530505108
C     1.8915221572     0.2540347777     3.3873559391
C     0.7868940738     2.4741698769     2.9331436643
C     -0.7717082558     -2.452723678     2.9573952406
C     -1.8746680203     -0.2287187202     3.3964902743
C     -3.0355436961     0.5649118315     3.1596452258
C     1.6158420642     -3.7759809048     2.1487128468
C     1.7149452985     -2.5780895606     2.9069300544
C     0.5100976869     -1.8395230107     3.2414423266
C     0.6078101099     -0.3981498072     3.4699097262
C     2.9549237438     -1.9136001073     2.8522065165
C     -0.5213340257     4.8556503776     0.4087282995
C     -1.8402167694     4.5589482169     -0.0681328686
C     -2.0197502518     3.9976074815     -1.3887099869
C     -3.1646846145     3.2282927603     -1.5793935672
C     0.5243281364     4.8520324595     -0.4542915749
C     1.8432808377     4.5597989393     0.0251162368
C     3.1680707561     3.2425931141     1.547837752
C     2.0229454731     4.0099535347     1.3504964083
C     1.9852742625     1.6766636532     3.0767953602
C     0.851498437     3.7043180077     2.1619056613
C     -0.3652696738     4.3116259134     1.7602570636
C     3.1796588257     2.1626988348     2.4896248885
C     4.0755114291     2.9091752039     0.464011271
C     3.6986757144     3.2088779204     -0.8722441367
C     2.5633992707     4.029249703     -1.060616767
C     3.9668027868     2.2341705375     -1.8650463039
C     4.7377337705     1.6847780245     0.781467825
C     5.0342329208     0.7103258413     -0.2067176886
C     4.6793682202     1.0515598365     -1.5579974804
C     4.6853935937     -1.0545687641     1.536953959
C     4.1970174259     -0.0359243233     2.4394922711
C     4.2362850311     1.2775967949     2.0806730318
C     4.7351533396     -1.6877697681     -0.8027156015
C     5.0351238707     -0.7132537554     0.1843565345
C     2.5682523271     -4.0327329011     1.0474879987
C     4.0743968937     -2.912316887     -0.4827806589
C     3.7026299928     -3.2121039121     0.8548746717
C     3.974249825     -2.2373382072     1.8466683478
C     -0.5217601156     -4.8598304695     -0.4103007922
C     3.1629849043     -3.2459393128     -1.5632004285
C     2.0187814167     -4.0135592897     -1.361584103
C     1.8442000138     -4.5634465634     -0.0355353766
C     0.5271124191     -4.8559812113     0.4488090652
C     4.1878507366     0.0328083337     -2.4587033808
C     4.2287594309     -1.2807072631     -2.100038426
C     3.1708093641     -2.1660454035     -2.5050323787
C     1.9741267485     -1.6802783468     -3.0877245909
C     0.8442397514     -3.708187483     -2.1686039793
C     -0.3708788488     -4.3157730662     -1.7624036662


