100

 C     3.9340530279     -0.6009498989     -2.3054011101
C     4.8291682796     -0.6658113357     -1.2159252155
C     5.2830131968     0.5169286586     -0.5462822584
C     3.4570018236     0.7101963308     -2.7567871268
C     3.9745221511     1.8512112895     -2.1211646747
C     4.8595994492     1.7586170604     -0.9950755235
C     1.5416617273     -0.3598848591     -3.8096601787
C     2.1438777208     0.8233292768     -3.4023006968
C     1.2834905066     1.9839876421     -3.2372598089
C     1.850327571     3.107189984     -2.5228415428
C     3.1371845553     3.0106239863     -1.9396010668
C     0.9834695095     4.0318935633     -1.9224788674
C     -0.1608988752     1.8588639395     -3.3401990968
C     -0.7500185723     0.5574208256     -3.6007867589
C     -1.4395254247     -3.4536674442     -2.2727862281
C     -1.4289830646     -2.2253244036     -3.0780846904
C     -0.2287687601     -1.8626461262     -3.7047998227
C     0.1208268923     -0.487426973     -3.9184413489
C     4.8721874955     1.1929419591     1.7808790092
C     4.3772407826     2.4647927162     1.3070134905
C     5.3537259485     0.2449845807     0.8766769292
C     4.4508246641     2.7720217216     -0.0429051441
C     3.4000960987     3.5441366452     -0.6371804033
C     2.3293613388     4.0465715261     0.1504073365
C     1.208898674     4.4603001345     -0.5655474065
C     4.3082444205     -1.5632644895     2.1787913454
C     3.7465839748     -0.5617475335     3.067157457
C     5.0345773633     -1.1564201588     1.059896441
C     3.993616891     0.7722873605     2.8563998019
C     2.9046674081     1.720195715     2.9608423874
C     -1.1177143465     0.2869991151     3.3086833319
C     -0.8738308431     1.6799133011     2.9903262058
C     1.5735199526     1.3165775909     3.2494609085
C     1.327495952     -0.0918289441     3.5284780448
C     2.4247566911     -0.9890291532     3.4477434459
C     0.7666872483     3.3196277933     1.9951801071
C     0.4883336249     2.1672618618     2.8311472425
C     -2.7093400021     3.9822238933     0.6780456211
C     -1.6990563542     3.6273320822     1.6158556397
C     -1.9660747438     2.5092121374     2.5120962158
C     -3.2743719909     1.9813119054     2.5400114533
C     2.1182742167     3.5378208609     1.5028940077
C     3.1682923595     2.7887101237     2.0591111052
C     -0.3270147497     3.9841116221     1.3152363984
C     -0.056026134     4.6052103352     0.06872103
C     3.7910294471     -2.7702041443     -0.3564778427
C     3.1279809065     -3.2785056615     0.8427810684
C     4.7221607872     -1.727884946     -0.2191118168
C     3.3611615299     -2.6187150944     2.0639928513
C     0.8639383476     -3.8979086876     1.7640583018
C     1.898220723     -4.0333758479     0.7345657454
C     1.5084746732     -4.4517087526     -0.5491575096
C     -0.4196474204     -4.3599637088     1.4919003543
C     -0.7933744746     -4.7824173774     0.1652978137
C     0.1377860998     -4.7494695317     -0.8436905501
C     2.2389391504     -2.2979012585     2.9370760216
C     0.9693221092     -2.8312091457     2.7444858167
C     -1.4911328823     -2.5613365973     2.8537520306
C     -1.5731469228     -3.7576856214     2.1021819796
C     -0.0002716273     -0.6323501095     3.4323059482
C     -0.1790339744     -2.0420336644     3.1459993205
C     -3.5181215109     0.6118261562     2.883428898
C     -2.4546515871     -0.2667705515     3.1825211903
C     -2.6482292867     -1.6887632438     2.9191705851
C     -3.8276082559     -2.0913483995     2.2372071589
C     2.0848976091     -3.8375806885     -1.7330383299
C     3.1340253315     -2.9099253189     -1.6467928636
C     3.1634220198     -1.796294385     -2.5960258362
C     1.0162915301     -3.6862408503     -2.6795179156
C     1.0005446925     -2.5823991149     -3.504952035
C     2.0873672708     -1.6619445643     -3.4892509587
C     -0.216806116     -4.1537498422     -2.1100036926
C     -3.744386395     -3.1198362719     1.2333775332
C     -2.6623387846     -3.9412347273     1.1845547133
C     -5.0890095289     -1.4627386844     0.3761969227
C     -4.3263666277     -2.6177785812     0.0100947598
C     -5.2548635277     -0.4370699528     -0.5326012793
C     -5.0975662391     1.2309722444     1.2669453302
C     -4.6961548774     0.1741254368     2.1626049781
C     -4.7894781367     -1.143219261     1.7657165704
C     -5.3651759327     0.9264526555     -0.0756860972
C     -4.2122946388     2.9622079074     -0.7939567814
C     -3.9584326716     3.2927065966     0.6055796451
C     -4.290856942     2.3841711959     1.5881625549
C     -4.8084874685     1.7632685033     -1.1135804449
C     -1.0366607098     4.5532883243     -0.9751045221
C     -3.1004637449     3.4332320966     -1.5664004007
C     -2.3286971701     4.2671353228     -0.6817254089
C     -2.1338142621     -4.3549986948     -0.0882366288
C     -2.4674161404     -3.6239690281     -1.2582440327
C     -3.5760996154     -2.6818308989     -1.1939443886
C     -3.5807091165     -1.4983118017     -2.0593406375
C     -2.4226194543     -1.1827669382     -2.8791727304
C     -2.0989350644     0.2003942325     -3.1796835381
C     -4.4735372983     -0.4519917852     -1.7530027916
C     -4.1821303964     0.9110788309     -2.1020366049
C     -2.9685014652     1.2662438843     -2.7289547163
C     -2.4317234086     2.6071582165     -2.5111176164
C     -1.0263617302     2.8939142752     -2.8033039484
C     -0.4201144769     3.9839316359     -2.1434221588


