100

 C     3.2842463238     -3.4989354316     0.4373495875
C     2.8650219493     -3.5913903915     -0.9013529829
C     3.572977     -2.7513470763     -1.8137687977
C     2.9312882813     -2.2719024129     -3.0122172462
C     1.6644955667     -2.6703913847     -3.3100780804
C     2.3474822556     -3.7621915464     1.5111962261
C     0.0986100845     -3.8447602836     2.2861707521
C     1.0103581511     -4.1484557114     1.2534068124
C     0.5272305923     -4.2502383538     -0.1275222875
C     1.4782065948     -3.9896995003     -1.1927981661
C     0.9543148366     -3.592540714     -2.4440165498
C     2.6339853108     1.3731049075     -3.4115965422
C     2.3727351973     0.0413082017     -3.744643996
C     3.3276921095     -0.9102699574     -3.2699032113
C     -0.5716686716     -2.1974719563     -3.5186628008
C     0.7057278048     -1.7376525079     -3.8743213581
C     0.9878602606     -0.3541202005     -3.9806309579
C     -1.6645806771     -1.3385806014     -3.41910946
C     -1.4401113811     0.0838507654     -3.5864475441
C     -0.1051100266     0.5784021202     -3.7834959333
C     0.2018419142     1.9545789841     -3.3696312924
C     1.5525191853     2.3238614681     -3.2493878409
C     -3.7404179409     0.4341030326     -2.8078128607
C     -2.4942433895     0.9952094682     -3.1720353109
C     -3.6030276552     -3.123477968     -0.7698153346
C     -2.6786164247     -3.0024923682     -1.8149486723
C     -2.8239816284     -1.8639137026     -2.7257148451
C     -3.9011096729     -0.9888597629     -2.5633197222
C     -1.3028956926     -3.7891760616     2.0438418106
C     -1.8171288822     -3.9987825465     0.7504257454
C     -0.8948027341     -4.1281322211     -0.3725691653
C     -1.3727928773     -3.6366632853     -1.6506329864
C     -0.4254390986     -3.3531904949     -2.6311096508
C     -3.130538092     -3.52026935     0.5403565992
C     4.2903174861     -0.5715094951     -2.2824383897
C     3.701982647     1.7394193937     -2.5351350424
C     4.4611597894     0.7572058103     -1.8328632088
C     3.3230834271     2.977277068     -1.9116764416
C     3.7518288349     3.2463368788     -0.6351181985
C     0.611813214     4.4458536231     0.8944914398
C     2.8548955262     3.9267538304     0.2726254366
C     1.5561853791     4.3303471692     -0.1413119092
C     1.9824165866     3.3292347276     -2.3349587888
C     -0.3345530467     3.7665895392     -1.727018123
C     1.0746378012     3.9760102721     -1.4823483524
C     -2.6113867221     3.7992715503     -0.7759432582
C     -1.2657493042     4.1830690863     -0.6916760637
C     -0.7871402128     4.4335299847     0.6160747019
C     -3.090357184     2.9895753949     -1.8633153733
C     -0.7744975783     2.7717578006     -2.6854717691
C     -2.1621363686     2.3349220306     -2.7023854721
C     4.5330601411     2.2689355482     0.0976292571
C     4.837444775     0.9949522778     -0.4364979585
C     4.9356937814     -0.1397400982     0.4894073689
C     4.1530761577     2.4336114663     1.4726693095
C     4.1658341505     1.358712754     2.3219760461
C     4.6526085947     0.0967670743     1.8595711391
C     3.0827809306     3.3955357928     1.5774863642
C     2.0048123819     3.1774054379     2.4821835722
C     0.8120967623     3.8288481617     2.1653487912
C     4.7231957007     -1.5056476781     -0.0046648126
C     4.4361948155     -1.7063391872     -1.3730425516
C     4.0184044719     -0.9038685988     2.6883734439
C     3.8543541265     -2.1796834602     2.2289061932
C     4.219507395     -2.5076229138     0.8731706002
C     0.4033382213     -2.8758435626     3.2930060099
C     2.6811369373     -2.9158844522     2.6076758104
C     1.6654169214     -2.3008230572     3.3959057802
C     1.9149842641     1.9479523812     3.2608355971
C     3.059777328     1.1283861411     3.2528546319
C     2.9745904794     -0.2587281438     3.4821876544
C     0.5320515142     -0.0719046004     3.7973181067
C     1.7402139488     -0.8889373234     3.7398402298
C     0.6183789966     1.3421367665     3.5542720912
C     -0.4627889705     3.343531998     2.6265021553
C     -0.6058478605     2.0806316948     3.2303542567
C     -2.9972041935     2.093344834     2.4183160819
C     -1.9105071077     1.4185437731     3.123365824
C     -1.9964180433     0.0070024185     3.3709899184
C     -0.776879181     -0.7265223595     3.717831288
C     -0.7936015201     -2.125149083     3.5647713094
C     -4.1467251865     1.3580487184     2.0567541294
C     -4.2345654395     -0.0350099572     2.3077651491
C     -3.1732024856     -0.7346109455     2.9202583618
C     -4.4639288604     2.6395140224     -0.0164261518
C     -3.3897225328     3.4908624663     0.390318292
C     -2.7250790985     3.2855461917     1.6292844247
C     -1.4612013727     3.8699783239     1.7413077448
C     -4.9043904308     1.6503028543     0.8420460844
C     -5.2907489816     0.1424148631     -1.0637527619
C     -4.6526613488     1.1169514978     -1.9271241374
C     -4.3038336883     2.3593608806     -1.4325296595
C     -5.3939602564     0.4004031934     0.3095450435
C     -4.7858270866     -1.9165694465     0.8209773879
C     -4.6797456903     -2.1933651649     -0.5977584925
C     -4.8642372156     -1.1631165597     -1.5105827281
C     -5.0586384626     -0.636473129     1.2605585406
C     -1.8723255175     -2.8007438957     2.9079485199
C     -3.0652185093     -2.1503200761     2.5958544812
C     -3.798622604     -2.7019856611     1.5066371389


