100

 C     0.1426617237     3.7952101977     2.2509132157
C     -0.6937450044     4.0391778716     1.1579286912
C     -2.0679318985     3.5292221638     1.2038756662
C     -2.8092414143     3.497902879     -0.0367534807
C     -3.9422341476     2.6643443057     -0.1677766717
C     -2.1636362651     3.8340264637     -1.2446402525
C     1.429865778     4.1657045635     -0.2453544975
C     -0.0289638869     4.3498722775     -0.1029822788
C     -0.8100284435     4.3033507043     -1.2700645804
C     1.9572210947     3.9166591122     -1.5200245881
C     1.0918050129     3.710945392     -2.64696564
C     -0.2546827975     3.8952071951     -2.5231486536
C     2.2383346956     3.7305683639     0.8825174465
C     3.4428779078     2.9035973928     0.6817924244
C     1.5894494434     3.6840060751     2.1226694053
C     3.8753816803     2.0982998907     1.7546321297
C     -2.3885928288     3.0620860386     -2.4365932458
C     -3.326893386     2.020656294     -2.4842540958
C     -4.2558487802     1.9940209331     -1.4129913485
C     -4.9768688184     0.8089065055     -1.0948944824
C     -4.7696390844     -0.3334533166     -1.8504622206
C     -1.1665661849     2.9816579865     -3.1613972504
C     0.7306917395     1.5718741511     -3.8617423896
C     -0.7086359492     1.7552334605     -3.7162897278
C     -1.5943392408     0.6081525493     -3.6852313058
C     -2.963280662     0.7926663158     -3.1866130562
C     -3.7495939066     -0.340043112     -2.8859153265
C     2.6645371243     0.05221234     -3.6743061398
C     1.2840767869     0.2239627454     -3.9333133644
C     -1.0250073123     -0.7269463202     -3.7607547809
C     1.5880584275     2.6197649226     -3.4358160367
C     -5.0474198988     -0.5026609311     0.9742411087
C     -4.8411558831     -1.7098514483     0.1893192683
C     -5.1007359492     0.7256441875     0.353051737
C     -4.7300982895     -1.6216574922     -1.1961160338
C     -3.7497926942     -2.4249770012     -1.8527947874
C     -2.9520995584     -3.3583827635     -1.1350918597
C     -1.7843532405     -3.7634879444     -1.7968220641
C     0.4197006624     -0.9279147529     -3.8149622048
C     -1.8570703844     -1.8461960422     -3.3725172814
C     -3.1805212531     -1.6425634136     -2.9309050481
C     1.0040540532     -2.1906821772     -3.3654442122
C     0.1451022679     -3.2115327941     -2.9220548446
C     -1.2570187251     -3.0460938237     -2.924723962
C     -2.6455764932     0.1743612708     3.7125683303
C     -3.6820259185     0.4884002701     2.8113704187
C     -4.3251880406     -0.6282247033     2.2096467912
C     -3.6874142889     -1.9143261425     2.1941945969
C     -1.5049068773     -3.0767242453     2.3514037958
C     -2.4748258825     -2.1538931729     2.8849567203
C     -2.0588479209     -1.1314193928     3.7664420398
C     0.861793173     -3.7023332166     2.193441974
C     -0.1382207189     -2.9816398118     2.8575895897
C     -2.988130515     -3.3761447523     0.3314376765
C     -3.9654209046     -2.5670255027     0.9434328835
C     -0.6927683278     -4.3401136542     -1.0823719331
C     -0.6807785611     -4.310554258     0.3427487386
C     -1.7782357387     -3.7156179948     1.0755386762
C     0.6001718055     -4.3582136027     0.9344132833
C     -3.6449525681     1.7754251752     2.1071169553
C     -4.3995336034     1.8651614887     0.9201997864
C     -1.6313814313     1.1213862645     4.0293250146
C     -1.5492906791     2.359254621     3.3389047104
C     -2.4955363406     2.6688105396     2.2840520735
C     -0.2703353757     2.9625948637     3.3283827628
C     -0.4430886757     0.3959915192     4.3930706596
C     0.8468695696     0.9403207785     4.2463273089
C     0.8991026278     2.3027772285     3.8691144828
C     3.1392042385     2.0068285108     2.9716062903
C     2.0290264615     2.8064010521     3.1641254309
C     0.309699802     -1.8603060885     3.6767190933
C     -0.6882206727     -0.9825964023     4.1572841701
C     2.2301070421     -3.3227282972     2.2348483269
C     2.6606492084     -2.1267801739     2.8573016205
C     1.6821628073     -1.3749207544     3.6148442784
C     1.9492800722     0.035561852     3.9182045102
C     3.1182651063     0.624370594     3.3954304913
C     2.8267608113     -3.7904290526     0.9950916875
C     3.8589713096     -3.1036283569     0.416020532
C     4.4152385795     -1.9551483956     1.082458689
C     3.8357879645     -1.4696991115     2.2879357767
C     4.0142082729     -0.0945257192     2.5363257951
C     0.4963639314     -4.1039227013     -1.8312865904
C     1.7601960707     -4.0651316746     -1.2292750589
C     1.802298     -4.3581270591     0.1650353148
C     4.3096103319     -0.842820239     -2.2841164406
C     3.2072351302     -1.1785381006     -3.1520797851
C     2.3918085033     -2.287460491     -2.9146712912
C     4.6031250891     -1.6568309285     -1.2169530802
C     3.8780310989     -2.8706601023     -1.0262374006
C     2.7750104448     -3.212483784     -1.8327623213
C     2.9091309595     2.3613242992     -2.9517897245
C     4.3708940003     0.5938842912     -2.1555065036
C     3.4612709042     1.1148418448     -3.1296996248
C     4.4912948101     0.8028380812     1.5290131147
C     4.8848520984     -1.0569377212     0.0726106322
C     4.8312485142     0.3554004438     0.2388629107
C     4.5288818221     1.2213299866     -0.8985497775
C     3.8407748799     2.5020457579     -0.6638577772
C     3.1288215835     3.0787149249     -1.7264740051


