100

 C     4.1017363764     -2.8825698371     -0.237725532
C     4.7837848329     -1.6108301551     -0.3609934734
C     3.6163792936     -3.2923871024     1.0050642721
C     5.0040490736     -0.822734127     0.7565231813
C     4.9162686914     0.6005623061     0.6500268614
C     4.3545127645     -0.9877973154     -1.5836371687
C     4.1928466989     0.4052915055     -1.7015293654
C     4.5442906274     1.2473254234     -0.5532649048
C     3.241370152     3.0923329171     -1.5365686013
C     3.9711816277     2.5844093997     -0.4456805034
C     3.6183687162     3.1092021659     0.8335557078
C     1.5885260353     -4.2411528106     -0.0563535319
C     2.0729685887     -3.7710711201     -1.3497127132
C     2.3497849036     -3.9330553917     1.0885340524
C     3.2951470151     -3.0738963851     -1.3991760598
C     1.3173612975     -2.3648985083     -3.3029111581
C     1.1322422837     -3.5221619817     -2.4230301671
C     -0.1572605304     -4.0544828856     -2.2722495479
C     0.1925309578     -1.8496356813     -3.96228396
C     -1.1180577353     -2.3865849016     -3.7556862872
C     -1.2927959892     -3.4808224162     -2.9436565991
C     3.4555147341     -1.8999150917     -2.2428100658
C     2.879719452     2.2395931945     -2.6574895919
C     3.2332304804     0.8755775309     -2.6918606042
C     2.3297175415     -0.0348172841     -3.3657682971
C     2.4387164455     -1.4616726187     -3.0972473995
C     1.0827810542     0.4769753141     -3.8950849163
C     0.0470282937     -0.4381356235     -4.1775867471
C     -0.6290123074     -4.5732283094     -1.0037685314
C     0.1798808147     -4.503690289     0.1474249503
C     -0.4539450636     -4.1764172204     1.424320696
C     -2.0425197211     -4.3433749774     -0.9405598163
C     -2.648103672     -4.1313953243     0.2769498487
C     -1.8468365225     -4.0604875023     1.4688279539
C     -4.6602533388     -1.1129695918     -0.3946326269
C     -3.7288150575     -3.197087948     0.3910331211
C     -4.0786040766     -2.3649989352     -0.7062194847
C     -3.3577431814     -2.4909389036     -1.9720472223
C     -3.1317390882     -1.288569618     -2.7966225315
C     -2.4466573926     -3.5605940058     -2.0928299606
C     -2.0565514899     -1.2985283067     -3.697310158
C     0.3065805507     -3.4412505655     2.4301508169
C     1.6897681507     -3.4445533937     2.2902780696
C     -2.4932258391     -3.1481053745     2.368290449
C     -1.7433373719     -2.3051799166     3.2282980399
C     -0.2997750925     -2.3949948393     3.2330965957
C     -2.3559410465     -1.1004906726     3.6315581111
C     -3.6873199031     -2.6629233861     1.7285328118
C     -4.7997103256     -0.6549737772     0.9459520908
C     -4.2171776146     -1.3818480158     2.028687695
C     -3.5927644615     -0.6503124982     3.0766374186
C     -1.557823431     0.0537282343     3.9283254042
C     -0.1603557152     0.0351542445     3.8604110911
C     0.4977524256     -1.2479049747     3.6299426032
C     1.9235233896     -1.2639266783     3.42603648
C     2.5071975977     -2.4351245219     2.8815501885
C     3.7438378419     -2.4044669598     2.1471654068
C     2.6704611235     -0.0138811015     3.3364126775
C     3.9373464934     -0.0428754323     2.6971528591
C     4.4358735927     -1.2215934007     2.0400611142
C     4.40298102     1.0810264755     1.9217181191
C     3.7444188815     2.2738749082     1.997570398
C     0.5311136454     1.2968549959     3.5984963086
C     1.9510953649     1.2583901149     3.3851098859
C     2.5584025145     2.393374519     2.7969332916
C     -2.3220151898     1.2205665608     3.6063496774
C     -2.4116396968     3.255507301     2.3170193848
C     -1.678840886     2.4059964483     3.1819645887
C     -0.2324745876     2.4654174082     3.1850853521
C     0.4007363282     3.4993804785     2.3798731334
C     1.784900396     3.4429781337     2.2256055296
C     -4.7739590289     0.7884781985     0.9335235868
C     -4.1731266412     1.5147847882     1.9961925154
C     -3.5691085895     0.7886771385     3.0595558053
C     -3.6042179899     2.7785811541     1.6739370875
C     -2.5369743978     4.2086999017     0.2107601899
C     -1.7443027126     4.1519739983     1.4120341124
C     -0.3509500811     4.2722481895     1.38405114
C     -1.9135375072     4.394663762     -1.0006764051
C     -0.5258867575     4.7185209091     -1.037386366
C     0.2871775162     4.6584844741     0.1216424868
C     -4.6066827489     1.216048013     -0.4204652733
C     -3.9572892599     2.4254883223     -0.7543838623
C     -3.6197350582     3.2839188256     0.3275694056
C     -1.3347851983     -0.1000662166     -4.0240644554
C     -1.7435197598     1.1679750343     -3.5694308275
C     -2.9378181277     1.2536117387     -2.7560868888
C     -3.617298993     0.0193570417     -2.3647227282
C     -4.4610963774     0.0490031804     -1.2354867751
C     -2.2333532375     3.5169826307     -2.1194636782
C     -3.1635679982     2.4640491748     -1.9822710554
C     1.2908964049     3.8994089468     -2.4613458389
C     1.6603584313     2.7269430405     -3.2090126447
C     0.6860865059     1.8510499628     -3.7267209386
C     -0.0269501584     4.2223892926     -2.3038285067
C     -1.0492092694     3.3991435217     -2.9087281226
C     -0.7285722079     2.2011810006     -3.5701777261
C     2.451696268     3.9039453477     1.0164327791
C     1.7099923792     4.4000485398     -0.0729609094
C     2.2086728542     4.0638481858     -1.3653648172


