100

 C     1.9783595242     3.5151995557     -2.1932130968
C     2.3321998346     2.2655966107     -2.7557060518
C     3.548723377     1.6153755705     -2.2792073769
C     3.7509654625     0.1972414342     -2.5167354574
C     4.6693904862     -0.5027224525     -1.6809882574
C     4.5547687839     -1.9127683852     -1.4441508112
C     2.7030343807     -0.5674639906     -3.1782679206
C     2.7038857098     -1.9749064353     -3.0290167684
C     3.6186611102     -2.645543148     -2.1424161491
C     0.2904043134     -0.768301396     -3.7818827704
C     -0.9530555996     -0.1597523332     -3.9791833039
C     -0.0703680957     2.0653703299     -3.4414166918
C     1.2739634532     1.4931880439     -3.383729895
C     1.4536495006     0.0715696212     -3.5714975624
C     -1.1322674361     1.2395945468     -3.8107547837
C     -0.4380831809     3.280767578     -2.7273077122
C     -1.7943270275     3.4440623139     -2.1732496738
C     0.6158518174     3.9934691496     -2.1508641945
C     -1.9342349866     4.1885122339     -0.9873702288
C     3.9818295505     -3.1116031059     0.6234405
C     3.0766392212     -3.9502748204     -0.133942067
C     4.7479923376     -2.1539569915     -0.0190949031
C     2.9044027376     -3.7274562124     -1.4904067252
C     1.5831253523     -3.7826098456     -2.0512677214
C     1.9248429745     -4.2256703978     0.6835649269
C     0.6338367615     -4.4147401878     0.1238794045
C     0.4538109475     -4.1649053659     -1.298740435
C     0.2495845501     -2.1520805585     -3.3512221846
C     1.4782027047     -2.7348038927     -3.0135785025
C     -2.1869175225     -0.8259960601     -3.6853926041
C     -2.2253609156     -2.071592381     -3.0374495679
C     -0.9616553282     -2.760901898     -2.849845304
C     -0.8418744525     -3.7633086606     -1.8057917576
C     -1.9453489463     -3.9903267385     -0.958369586
C     4.3509880787     -0.5316643788     1.8273401569
C     3.4426753228     -1.5040188232     2.4428868116
C     4.989354526     -0.8954586494     0.6134249945
C     3.3322435731     -2.7796362725     1.8600115376
C     2.0916536989     -3.5220880076     1.914738992
C     0.9779573068     -3.0785027332     2.657886356
C     1.0820411954     -1.8205454913     3.3641154442
C     2.3136062319     -1.0486708832     3.2550254307
C     2.2420824909     0.315494529     3.5581356687
C     -1.3521460148     -1.8516290003     3.6169666792
C     -0.1414873615     -1.1583520983     3.772114581
C     -1.7743520918     -4.2747035023     0.425244928
C     -0.4820194068     -4.2872101771     1.0138274084
C     -0.3049466832     -3.6418733878     2.3020865154
C     -1.4405527101     -3.084439201     2.9253884926
C     5.1310357604     0.0846810397     -0.4491340955
C     3.138692126     1.2855964346     2.980204813
C     4.1617088016     0.8963321288     2.0852258216
C     4.5174723552     1.8599318708     1.1033389029
C     4.9143125834     1.4110495083     -0.2122049689
C     2.4252707806     2.5122460527     2.8364841961
C     2.6689654709     3.4003858099     1.769092578
C     3.7764858601     3.0741320671     0.9352027792
C     3.6966051835     3.3252595537     -0.4843426031
C     2.6206672492     3.9949255224     -1.0004792546
C     0.203437851     4.0114755922     1.8348272847
C     1.5398335297     4.1606150298     1.236559749
C     1.6142623441     4.5539787861     -0.1219005968
C     -0.9061285321     4.4207842305     1.0850304751
C     -0.7968446899     4.7260342013     -0.3142432504
C     0.4394473825     4.706987694     -0.9149199863
C     1.0884235175     2.3143888039     3.3540757281
C     -1.3349666974     2.3688515535     3.0585025501
C     -0.0334768745     2.995731508     2.8727573703
C     -3.6314410345     2.1243642963     2.1247653448
C     -2.4617316619     2.8924845855     2.2966358097
C     -2.2174246528     3.8582241961     1.2919025254
C     -0.2167768578     0.2913659756     3.884537827
C     0.9962026203     0.9761204949     3.8266320703
C     -2.6135404386     -1.1455625691     3.4709670874
C     -2.6592785061     0.2667493871     3.428207245
C     -1.428680554     1.0291097233     3.5954485325
C     -3.7519953034     0.8188470525     2.7199533358
C     4.2499967053     2.2147278059     -1.1986020898
C     -4.9956754337     0.8450933102     0.7802448342
C     -4.3803321427     2.1379072526     0.9087865695
C     -3.8947670563     2.8423301801     -0.2286781507
C     -2.8834095089     3.7839624869     0.0300017091
C     -5.1318271533     0.2873368028     -0.4693810949
C     -3.4913250062     -1.9509794535     2.6860553822
C     -4.4247233287     -1.3751366001     1.7839138395
C     -4.6181723261     0.0216800887     1.9139862997
C     -3.8209528348     -3.1334357092     0.1401058568
C     -2.9198676168     -3.7346618898     1.1083928656
C     -2.7572922823     -3.1518673975     2.3414165581
C     -4.9298035165     -1.1470894634     -0.6423017943
C     -4.5927573818     -1.9845591455     0.4566935511
C     -3.1634612647     0.2049870376     -3.4102928009
C     -4.2111843761     -0.0304397382     -2.548019093
C     -4.3392242749     -1.3353305541     -1.9255748016
C     -3.3670938497     -2.3457853189     -2.1638736767
C     -3.2054581707     -3.2921057018     -1.1327420637
C     -3.9398071972     2.2196110188     -1.5410757341
C     -2.8431494143     2.4781833197     -2.4799452849
C     -2.5046743545     1.4747126028     -3.4024046721
C     -4.6357353845     0.9852448833     -1.6392622435


