100

 C     4.005990954     -0.2255445663     -2.0944464434
C     3.2509114225     -1.3627882902     -2.62852385
C     4.7423279652     -0.4106690762     -0.8950679565
C     3.3542038249     -2.6065050129     -1.9710746733
C     2.296251721     -3.5558768818     -1.9854002149
C     1.0687659906     -3.3302464994     -2.6502891873
C     0.9293734609     -2.0793308523     -3.3699669084
C     2.0441499293     -1.1533010114     -3.4032613811
C     1.7888999399     0.1655282405     -3.8217201741
C     -1.5149389281     -2.3532756633     -3.2614327784
C     -0.4124411047     -1.5753159958     -3.6453960395
C     -1.3824139062     -3.5800134132     -2.5444607289
C     -0.1088737205     -4.0580240842     -2.1695744651
C     -0.0316786697     -4.7830462345     -0.9426926273
C     2.6018347462     1.2712520091     -3.3969754541
C     3.627928422     1.1302312083     -2.4370963398
C     3.8688115019     2.2381453428     -1.5010023314
C     1.7771181976     2.4486411048     -3.4570239453
C     1.9865289478     3.4772731477     -2.5719369039
C     3.0633706882     3.3967419864     -1.6179779176
C     0.4385224766     2.0581548342     -3.7933878437
C     0.8546333895     4.1455029336     -1.9806711602
C     -0.4621616726     3.7654756311     -2.2765916451
C     -0.6845823847     2.6697683901     -3.2265531651
C     -0.6643736545     -0.1661596137     -3.8656329901
C     0.4580281603     0.6472047193     -4.0532888573
C     -2.776496302     -1.7498236275     -2.9109513147
C     -2.9802509294     -0.352621039     -2.9455022386
C     -1.9137925772     0.4686809249     -3.4713939425
C     -1.9060739011     1.8860230044     -3.1722182564
C     -2.9669826893     2.4176007375     -2.4185743371
C     4.4318976101     1.9489676096     -0.1838575434
C     4.8682904066     0.6252025617     0.0780855131
C     2.6231652503     4.1217549389     -0.4583096015
C     3.0696708004     3.7702884696     0.8001555259
C     4.0207018419     2.7107545754     0.9435689023
C     1.2468215677     4.5147493656     -0.6390700854
C     0.3255073865     4.4765037543     0.421058041
C     -1.474224429     4.0704559495     -1.288010771
C     -2.7563720538     3.5224049498     -1.4981026382
C     3.7770104174     2.0815454913     2.2231363628
C     4.1150864547     0.7228340191     2.4473484055
C     4.7648519011     0.0267332532     1.3950883506
C     3.278506617     -0.0313859973     3.3125076956
C     2.5779327404     2.6430669445     2.7614362818
C     -1.5095392935     3.4943550547     2.3302229276
C     -0.1599247802     3.2955098947     2.5979152206
C     0.2238735245     2.1237413179     3.3612898078
C     1.6383940044     1.8359688839     3.468709425
C     2.045805889     0.5314922919     3.7941640089
C     -1.075992345     4.4074876106     0.0703398704
C     0.7862705331     3.984792543     1.7252272983
C     2.1440327435     3.7092804742     1.8949999605
C     -1.9829285472     4.1436682664     1.1183569671
C     -3.7013816188     3.38997181     -0.4372865388
C     -3.2991732402     3.6749284651     0.8704294188
C     3.0601741575     -1.4267243964     3.1028641981
C     3.6871790309     -2.1311946289     2.0466095761
C     4.5962645905     -1.3839746048     1.2385917629
C     4.6923880457     -1.655437872     -0.1723143654
C     4.032897223     -2.7270758527     -0.6991208442
C     1.6586487401     -3.6536193835     1.9993335229
C     2.9789291922     -3.278613175     1.4820532821
C     3.2888695333     -3.6348172872     0.1441493034
C     0.8514855821     -4.4890781116     1.2072065564
C     1.1762612385     -4.7641132706     -0.1755324261
C     2.3323590912     -4.2627520038     -0.7051766415
C     -2.5072881462     2.5727530565     2.7785460209
C     -2.1388579552     1.3045828206     3.2911561073
C     -0.7503991387     1.0775015949     3.6065210852
C     -0.2945699816     -0.295820148     3.7777620768
C     1.0839347215     -0.520335037     3.9170798485
C     1.7071629868     -1.7329639777     3.5042778424
C     -1.1193696997     -1.4316918491     3.4107743899
C     -0.4839347051     -2.6762168103     2.99105145
C     0.9678493854     -2.7818850399     2.9495564535
C     -3.0370349458     0.1772612547     3.067144424
C     -2.5152198591     -1.1885566788     3.111153331
C     -3.2408146628     -2.2002058816     2.4383582238
C     -2.6012245923     -3.3584477031     1.9217445048
C     -1.2439329321     -3.629429679     2.2082444442
C     -0.5697490472     -4.4920520237     1.3098534484
C     -4.483447747     1.6845966381     1.6894197851
C     -3.6585955101     2.7544556661     1.9380040805
C     -4.7622662699     -0.5887789738     1.4415280168
C     -4.2218977381     0.4194560814     2.3190982716
C     -4.307502973     -1.8734493198     1.525873556
C     -4.5168717739     2.2239377372     -0.7046602301
C     -5.0475788848     0.0066894996     0.1555443721
C     -4.9574381319     1.424948789     0.3320845133
C     -3.4092017303     -2.5914526335     -1.9483607361
C     -4.1764162639     -2.6751832842     0.3469653583
C     -4.2391126321     -2.0492082794     -0.9343846243
C     -4.6072833828     -0.6389129386     -1.0308763319
C     -4.0086252744     0.1961803905     -2.0747705416
C     -4.0232108778     1.5990618737     -1.9088212889
C     -1.1131220135     -4.7313783743     -0.010739749
C     -3.1862886896     -3.6679274959     0.6380589976
C     -2.3903474287     -4.2318527874     -0.3848957942
C     -2.5309852106     -3.7077607513     -1.6964119643


