100

 C     -4.9676293386     0.5767134464     -0.4679970662
C     -4.702614252     1.872473431     0.0519981747
C     -4.3159668062     -2.038459088     -1.4564526457
C     -4.195608504     -0.9457492889     -2.282050573
C     -4.5729630605     0.3643374727     -1.8185525571
C     -3.3577054339     -3.1025124601     -1.5561602458
C     -3.7414779286     1.3043116324     -2.5055423087
C     -3.3957373226     2.554144833     -1.9544590042
C     -4.0005397803     2.8627961816     -0.7034362196
C     -3.2930012566     3.7026808868     0.2313894155
C     -2.1626951149     4.3590886378     -0.1551744794
C     -2.7991500686     0.5734178466     -3.3059067506
C     -1.5117581234     1.0510509525     -3.5658171762
C     -1.1513270021     2.3934832031     -3.1195229143
C     -2.1019277255     3.137313295     -2.3167668126
C     -1.5853676029     4.1527152866     -1.4821937128
C     1.1758527476     1.8614277435     -3.6400549537
C     0.249341116     2.761600023     -3.0869604168
C     -1.0992308962     -4.5347999944     -0.7904380152
C     -1.0309047963     -3.7818507724     -1.9932007382
C     -2.1968986442     -3.0035132078     -2.3666601231
C     -2.0168797566     -1.7937546533     -3.1638864041
C     -3.0530135305     -0.8323228965     -3.1542050212
C     0.462659391     -2.2026765318     -3.2997372756
C     -0.6920492023     -1.358958816     -3.5640247969
C     -0.5008619596     0.0500846687     -3.8529926931
C     0.805556283     0.5303875194     -4.00701995
C     1.3077300812     4.5383127641     0.528040966
C     -1.0973473723     4.5403167494     0.7828228039
C     0.0776468264     4.7680520722     -0.0063338611
C     0.7700562705     3.7389900808     -2.1507011572
C     -0.1931511915     4.4258123668     -1.3829179679
C     2.3814613847     4.0694495079     -0.3028884609
C     2.1311785807     3.6078276532     -1.619211719
C     1.4209992342     3.9451937725     1.8373758502
C     0.2850547344     3.4172756829     2.5019913424
C     -1.0323191199     3.7873078301     1.9857374153
C     -2.1997790578     3.0099063994     2.356594781
C     -3.3587051028     3.1098456394     1.5435154373
C     -4.31758477     2.0465775089     1.4416794221
C     -2.0225166061     1.8000133811     3.1542072189
C     -3.0593761241     0.8394351684     3.1422199366
C     -4.1999222873     0.9537631636     2.2675560871
C     -0.5095020118     -0.0450623185     3.8467599592
C     0.796160835     -0.5263898882     4.0037554194
C     1.7976955999     1.6610047682     3.4524172223
C     0.4570390493     2.2068860935     3.2956722872
C     -0.698894492     1.3641413748     3.5573388512
C     1.9307791604     0.323487912     3.8811764722
C     2.6981522908     3.3102045644     1.8678202416
C     4.0323894863     1.3870461971     2.3507836257
C     2.9349121088     2.2105757303     2.7117115731
C     4.1956993813     2.4185994211     0.0890927478
C     3.3030926082     3.4038117556     0.5639509485
C     4.6573589157     1.4918042774     1.0571239114
C     4.1126355561     2.0390939076     -1.3197708946
C     2.5595635339     1.8356588498     -3.2382033989
C     3.0356600592     2.6014646727     -2.152835033
C     4.6467270233     0.7808245428     -1.6709583888
C     -4.7039424001     -1.8640655986     -0.0676273377
C     -4.9690982837     -0.5680785086     0.4517818858
C     -4.5772687484     -0.3560252471     1.8031958716
C     -3.7480800103     -1.2966848801     2.4920480105
C     -3.4021149125     -2.5467985909     1.9417285712
C     -4.0043684077     -2.8549474959     0.6893566707
C     -2.1665050043     -4.3527357133     0.1451624902
C     -3.2954069152     -3.6953948258     -0.2439108673
C     -1.5205671827     -1.0452201395     3.5573024964
C     -2.8069589863     -0.5665695341     3.2944915722
C     1.1662402447     -1.8578041379     3.6375725317
C     0.2402451896     -2.7572179948     3.0823958471
C     -1.160211983     -2.387953626     3.1117953698
C     -2.1095909749     -3.1309932104     2.3069329272
C     -1.5919537792     -4.146822512     1.4734885026
C     2.1246745276     -3.6050117625     1.6189355057
C     0.7622720441     -3.7350284761     2.1473225521
C     -0.1997997653     -4.4210668939     1.3773582979
C     2.3775593743     -4.0668413823     0.3031103488
C     4.6423567073     -0.7800589468     1.6763297955
C     4.0664544815     0.0028457895     2.7328885156
C     3.0418209902     -0.5082815388     3.4988828877
C     4.1080359123     -2.0379272071     1.3239421976
C     3.0287487366     -2.5994210129     2.1545679897
C     2.5507935212     -1.8331729511     3.2388762249
C     4.6585453672     -1.4910390217     -1.0516845309
C     5.0807982428     -0.1671916729     -0.6637898321
C     5.0794305351     0.1675594176     0.6701736343
C     3.3016218505     -3.4019893343     -0.561594887
C     4.1939585089     -2.417470422     -0.0847202189
C     3.0500770442     0.5103810943     -3.4971401644
C     2.6996628515     -3.3078556295     -1.8668931784
C     2.9392034507     -2.2083622461     -2.7101965733
C     4.0365381709     -1.3857345865     -2.3468065183
C     4.0725945905     -0.0016106454     -2.7288024791
C     0.0738284636     -4.7634937805     0.0013643653
C     1.3052675952     -4.5347840778     -0.530234877
C     1.4219871912     -3.9417693374     -1.8393403024
C     0.2879307991     -3.4128744008     -2.506509706
C     1.8041109512     -1.6578538309     -3.4534471522
C     1.9392539959     -0.3204460817     -3.881894812


