100

 C     -3.5182483738     2.6395868866     -1.9576192473
C     -3.715522277     1.3989942638     -2.5955054779
C     -4.7197423604     0.5580340442     -2.0396357772
C     -4.7066476859     -0.8563424309     -2.2591107483
C     -3.7101632615     -1.4078104965     -3.0491628667
C     -2.6435652895     -0.5653397959     -3.5633086845
C     -2.5756234228     0.8156618196     -3.3082323936
C     -2.2730352609     3.3596940329     -2.1002294207
C     -1.1322176612     2.7845178598     -2.6965147093
C     -4.5312026158     -2.7053028622     -0.6592562409
C     -3.5278319008     -3.3106554759     -1.5070558384
C     -5.1220000377     -1.5113690734     -1.0335273756
C     -3.1311799898     -2.673450449     -2.6830095162
C     -1.7393814479     -2.6413743905     -3.0223837864
C     1.6088609591     -3.4867780769     -1.626340707
C     2.9411762684     -3.0928895223     -1.8260019681
C     0.6034133049     -2.8743339587     -2.4491601529
C     -0.7644292963     -3.286582152     -2.2536898092
C     -1.1685168834     -3.9254826283     -1.0076439087
C     -2.5297024883     -3.8998321719     -0.6604700992
C     0.2470014906     4.2839065994     -1.3011073868
C     0.1858257431     3.3027015525     -2.3161834561
C     -1.2553155675     1.4528788956     -3.2749324373
C     1.3931810811     2.5431316706     -2.603870789
C     1.265533555     1.2277431655     -3.1591198465
C     -0.0627933075     0.6675390093     -3.4325198897
C     -0.1819966204     -0.7720604857     -3.5242155743
C     -1.4540039293     -1.346628011     -3.5989272761
C     2.4108369803     0.3363918045     -3.1638499931
C     2.2258030708     -1.1113494194     -3.1158397572
C     0.8998173758     -1.6482640856     -3.1351920768
C     3.2546039925     -1.9345627549     -2.6161589812
C     -3.4427842215     -1.8915915604     2.7974486193
C     -4.3719622721     -1.9128355526     1.7097998145
C     -4.1441916178     -2.9089231986     0.7234775697
C     -2.9313418138     -3.6753122278     0.7112046124
C     -0.5656776253     -3.7775736819     1.4010187667
C     -1.952716109     -3.5362897058     1.7158256651
C     -2.2706454846     -2.677876961     2.7946109141
C     1.768616926     -3.4585984868     1.9846712651
C     0.4430407691     -3.2677395781     2.3088902323
C     1.2117568547     -4.015006361     -0.3256049749
C     -0.1790456256     -4.0427260604     0.047689237
C     2.170068013     -3.9648366278     0.7047160192
C     -5.0219989289     -0.6524092362     1.3145097303
C     -5.3842453236     -0.4820217602     -0.0463539867
C     -3.0860563094     -0.6418044195     3.4493305035
C     -3.6820156896     0.5245778115     3.0868702179
C     -4.6951712564     0.5431092528     2.0465633293
C     -1.6826067652     -0.6516645201     3.7998938245
C     0.781639957     2.6200157924     2.7036119901
C     1.4146160784     1.394172182     3.134526568
C     -0.8431882431     0.4916359197     3.6842978484
C     -1.4687273947     1.7374800062     3.2835812904
C     -2.8913808814     1.7367320733     3.0359445307
C     1.0825878872     -1.0771307558     3.374159715
C     0.5739168339     0.2761526314     3.5152145611
C     4.5983073051     -0.4587081082     2.1298850812
C     3.3774549071     -0.2078577829     2.8270719763
C     2.8391065607     1.150000918     2.862240465
C     3.586686126     2.1503520294     2.2044242693
C     0.1398952963     -2.1585226828     3.194824697
C     -1.2048027703     -1.9242973034     3.4599337511
C     2.4671473693     -1.3186642105     3.0272239108
C     2.801727407     -2.578731883     2.4737226187
C     -4.5810014729     1.7985443231     1.4175682103
C     -4.8151675676     1.9418564495     0.02067906
C     -5.2134937596     0.7901859963     -0.7008914161
C     -4.057698575     2.915597927     -0.6730857252
C     -3.4841575796     2.5472792231     2.0567995939
C     -2.7220558911     3.5072196821     1.3561894129
C     -3.1196445596     3.7878148167     0.0186261209
C     -0.898363961     4.5763682882     -0.505576107
C     -2.1460826065     4.1823487783     -0.9316660906
C     -0.675401717     2.7608871985     2.6901640665
C     -1.3288187843     3.6997788283     1.7639922397
C     2.9082593388     3.2644260622     1.6112724032
C     1.5571393678     3.5312721345     1.8855273593
C     0.9039295648     4.3204255304     0.9156577099
C     -0.5202741221     4.4183034234     0.8691135199
C     4.5908665276     2.6143535157     0.1572449351
C     3.4748035282     3.4920925093     0.3130974114
C     2.6075022325     3.7747295955     -0.7734134345
C     1.3908588771     4.3448070139     -0.4216151084
C     4.800337063     2.0029940162     -1.0699157781
C     5.6437320135     -0.0188137603     0.0660175089
C     5.2272984072     0.5623141869     1.3322320883
C     4.7270181892     1.844107139     1.3773081358
C     5.3578778644     0.6743103428     -1.1196356834
C     3.9416114821     -2.7521346021     1.6226002613
C     5.4061967557     -1.4401306841     0.1475685637
C     4.8372008537     -1.7143620156     1.4582977354
C     4.7040596445     -0.0224255582     -2.2062234494
C     4.4985348699     -1.3855318249     -2.132641646
C     4.9065365357     -2.1317278505     -0.9612504817
C     3.9415026477     -3.1946047736     -0.7856752915
C     3.5270132092     -3.5565620307     0.4864989204
C     2.6474407812     2.934472004     -1.9632890841
C     3.7687036889     2.1080451731     -2.1037420857
C     3.6666430516     0.838249627     -2.7432523147


