100

 C     -2.1446102311     -2.517158899     -3.0827130287
C     -3.1480634104     -2.6313199878     -2.0975969436
C     -4.0759274242     -1.5631784506     -2.0636002937
C     -4.8512439138     -1.2796647163     -0.8896121204
C     -4.6259616153     -2.0219383053     0.2587985709
C     -0.9258313385     -3.2662291601     -2.9865075432
C     0.7501791102     -4.2821465366     -1.6265867708
C     -0.6248920363     -4.0146099453     -1.8256046323
C     -1.5382222783     -3.9763702215     -0.682215657
C     -2.8463264356     -3.3802704758     -0.873215316
C     -3.6048817548     -3.0509422381     0.2707719953
C     -5.0638177464     0.7811631704     0.4138242314
C     -4.8213378845     0.0179586529     1.6227156869
C     -5.0481899367     0.15330678     -0.8138900686
C     -4.602474908     -1.3553769492     1.5425129247
C     -3.5764616668     -1.9471888711     2.3339023206
C     -3.9977715559     0.8176543809     2.4732458627
C     -2.9637875721     0.2669015815     3.2459587877
C     -2.772507854     -1.1848203332     3.1979613621
C     0.3538439505     -3.2889753574     3.0728710096
C     -1.0025533174     -2.9848367907     2.9398137148
C     -1.5121465274     -1.7764674034     3.6014674446
C     -0.5996854549     -0.9343152077     4.2465869262
C     1.2798639825     -4.4891462425     -0.3072989971
C     0.440484201     -4.3551789628     0.8194687261
C     -0.9856522047     -4.0930621926     0.6484607744
C     -1.7024462292     -3.5119293713     1.7694483626
C     -3.0018565629     -3.0479766369     1.5614079467
C     1.0809008209     -3.9578931557     2.0176918004
C     -2.8971927775     3.7080010106     -0.2403066396
C     -3.8255929524     2.7103632401     -0.563493429
C     -4.4389717632     2.0697354542     0.5498746557
C     -3.8209037567     2.1126469822     1.8418570581
C     -0.7300174952     0.5125048709     4.1686870304
C     -1.8369836725     1.1338791231     3.594054062
C     -1.6432503869     2.4387304887     2.9821693689
C     -2.6877955102     2.9171794324     2.0938313478
C     -2.374666342     3.8485510606     1.0795062013
C     -3.6697634384     1.9884599531     -1.8320876694
C     -4.3298782612     0.753110904     -1.9312258541
C     -1.8716785805     4.1139360836     -1.1614023778
C     -1.6360813264     3.3717698511     -2.3528067622
C     -2.4790483617     2.2248050335     -2.6600399966
C     -0.3172729575     3.4212427084     -2.8654261683
C     -0.792326978     4.6720145344     -0.4140024735
C     1.5782869851     4.5437575057     0.0580481798
C     0.53670137     4.6424725064     -0.901531881
C     0.7545590832     4.0664316103     -2.1761171049
C     0.5790822508     1.0672191382     4.080082575
C     0.8251883999     2.2588509344     3.392882955
C     -0.3136359549     2.9982762663     2.87278758
C     -0.0544738293     4.0291738046     1.8708793815
C     -1.0687390382     4.416848725     0.9792289748
C     1.2847154733     4.2341509031     1.4198360099
C     0.235661106     2.3009958234     -3.5661917725
C     -0.5052147491     1.1549352924     -3.8205111335
C     -1.9283520266     1.1476720393     -3.4461170401
C     -2.6089839424     -0.1224520685     -3.4658948823
C     -3.7902692303     -0.3093525304     -2.7199879914
C     -1.8803328263     -1.2966419617     -3.7641202145
C     1.6542065293     2.2554763843     -3.3147621324
C     2.3828911838     1.0377272716     -3.3236389847
C     1.6935929103     -0.1568547807     -3.7435106689
C     0.2554338458     -0.0810090363     -4.0296273637
C     -0.4764058479     -1.270106689     -4.06455037
C     3.5112895963     -1.47909934     -2.7503946544
C     2.2825383726     -1.4521614401     -3.4469136073
C     2.8495881558     3.9378610129     -0.2789330242
C     3.0320153974     3.2449558023     -1.5045105934
C     1.9726100705     3.3349150595     -2.4553702618
C     3.8822589266     2.0604917896     -1.550920494
C     3.5861613704     0.9861075862     -2.5113064396
C     4.1350195646     -0.2889875268     -2.2790781763
C     1.4462454422     -2.6442874605     -3.3516106885
C     0.0897827714     -2.5327010236     -3.6760010904
C     1.767869986     -3.6796779524     -2.4293443927
C     4.9454772099     0.3548172708     -0.0743651927
C     4.8021765261     -0.6117626554     -1.0308665997
C     4.4810627533     -1.9548353492     -0.657068083
C     3.8084827728     -2.5385018429     -1.791574239
C     2.9470055301     -3.5931905895     -1.618466155
C     3.3847719796     3.4002574007     0.9332243295
C     4.2347802774     2.3166030745     0.8881456959
C     4.5788376567     1.715558631     -0.3676685288
C     3.1157278093     1.2982923663     2.849202471
C     2.1780951237     2.4318839268     2.8658969924
C     2.3864573042     3.4825041572     1.9584254284
C     4.1406604362     1.2881638586     1.8879078274
C     2.5093904677     -2.4226194483     3.0384436465
C     1.2669550547     -2.4099603142     3.7389351171
C     0.7942720685     -1.2296213716     4.2878349567
C     3.2541479555     -1.244618845     2.833347315
C     2.7390326974     0.0103639022     3.4056560815
C     1.5383850148     -0.0237532714     4.1307211399
C     2.6459209962     -4.054573322     -0.2900468823
C     4.1143775374     -2.2815777183     0.6717126697
C     3.1966310686     -3.4014503884     0.8456805737
C     2.4187938038     -3.4535971121     2.0195316213
C     4.6225816632     0.0537490685     1.2974640247
C     4.1445073011     -1.2088679589     1.6778796666


