100

 C     0.272161442     2.5466427911     3.2029511074
C     0.6665997279     1.2084138405     3.3396045839
C     2.0536337874     0.8846022662     3.0147491558
C     2.443567928     -0.4948141188     3.0725460363
C     3.7228348073     -0.8451114599     2.5711151245
C     4.0198902539     -2.1796794495     2.1013270628
C     1.422583177     -1.5353900637     3.2098598165
C     1.7834548549     -2.8490512851     2.8191904379
C     3.0577460641     -3.1535898679     2.2072163823
C     -1.0836271224     2.9247965375     3.0672162052
C     -0.9711831242     -2.1905453073     2.9066830622
C     -2.7697805188     -0.4483147488     3.0028714928
C     -2.1103736138     1.9684194097     3.0612435145
C     -1.7616938106     0.5726551982     3.2843091143
C     -0.3758821301     0.1921938044     3.4130558851
C     0.0134266533     -1.2064546502     3.2787857736
C     -4.0264983524     -0.0454408516     2.4853356778
C     -4.2150695244     1.3038323575     2.0019809187
C     -3.309555765     2.3179446391     2.3127417817
C     -3.2707862178     3.409381978     1.3955910885
C     4.5336887152     -2.8671451773     -0.2007201281
C     3.4843232534     -3.8527411938     -0.1073095387
C     4.8416433722     -2.0777783961     0.9103815765
C     2.8222040766     -4.0662248264     1.1058818041
C     1.4395046049     -4.3967462022     1.10970721
C     2.6973991593     -3.7768177884     -1.3077223502
C     1.3398410075     -4.075154638     -1.3170698573
C     0.7066978421     -4.5112452848     -0.0799877287
C     -2.7186384181     -3.7773369787     1.2652476371
C     -1.3619746492     -4.0797969226     1.2725866378
C     -0.7301293033     -4.5094678698     0.0326065363
C     -1.462583638     -4.3848101972     -1.1562905908
C     -2.3676584718     -1.82724349     2.7978672768
C     -0.538036183     -3.4189049308     2.2702330955
C     0.817281404     -3.714454762     2.2432910635
C     -3.2387695913     -2.7069241599     2.0982478706
C     5.2481341411     -0.1378228938     -0.5321573351
C     4.7925574137     -0.9123796635     -1.6736995497
C     5.1622046728     -0.6803624574     0.7391694526
C     4.4169756306     -2.2328287318     -1.5051003556
C     3.2207370916     -2.7024070179     -2.1335291182
C     2.3522732998     -1.8154502752     -2.8272214392
C     0.5178931907     -3.4051141679     -2.3102467802
C     -0.8383056957     -3.6967803751     -2.2852750202
C     3.7177178804     3.2002469469     -0.0547848581
C     4.4031343637     2.0396364823     0.3285561706
C     4.8676223434     1.2267127703     -0.7413745945
C     4.2090470047     1.3046683837     -2.0103997145
C     3.3065777499     2.3235454866     -2.3143436662
C     3.2710656117     3.4089176849     -1.389886668
C     1.1141177201     4.1188635195     -2.2056109587
C     2.1505259141     4.3013670577     -1.3255238833
C     0.9547175877     -2.1738248926     -2.9384498351
C     2.7585250139     -0.4363867148     -3.0229910696
C     4.0164347017     -0.0407606874     -2.5027816258
C     1.0824773397     2.94211545     -3.0647100383
C     2.1063565206     1.9826434919     -3.0651573322
C     -0.0269446947     -1.1843134222     -3.3039414053
C     0.3665511966     0.2140292534     -3.4288428277
C     1.7534997751     0.5894631584     -3.2975707341
C     4.0562348776     1.3954093518     1.5986684155
C     4.484909874     0.0749716102     1.7885612096
C     2.7810309962     3.8452192193     0.8374777651
C     2.3595636143     3.1592515401     2.009365301
C     2.8943665852     1.8479672426     2.3352058759
C     1.0954339109     3.5140333183     2.5008055528
C     0.238933725     4.4292001456     1.8246254997
C     0.5430653938     4.8703414432     0.5046683096
C     1.865914469     4.6196747298     0.0672470136
C     -0.2355789666     4.4421117883     -1.8120431221
C     -0.5384017222     4.8752956262     -0.4891492477
C     -1.861997823     4.6256678935     -0.0534046975
C     -2.1475766639     4.2988802082     1.3371987692
C     -1.1117284961     4.1073702031     2.2160355782
C     -1.094811768     3.5340722485     -2.4943351562
C     -2.8987361869     1.8723334108     -2.339891824
C     -2.3600038855     3.1797922764     -2.0052710002
C     -2.7794281737     3.8591430725     -0.828805028
C     -4.4945775308     0.1004712105     -1.8051256407
C     -4.0619532874     1.418324355     -1.6063925727
C     -3.0770791352     -3.1294717175     -2.2454241519
C     -1.8018735208     -2.8246518337     -2.8553485324
C     -1.4370714434     -1.5094821204     -3.2372108805
C     -4.0363035636     -2.1534178019     -2.1329990417
C     -3.7352558003     -0.8166175968     -2.5938314434
C     -2.4549427573     -0.4667951557     -3.092921563
C     -2.0608824349     0.911025266     -3.0258906372
C     -0.6728805382     1.2328500267     -3.3485782732
C     -0.2744337504     2.5689482397     -3.2029613841
C     -4.552183581     -2.8547662038     0.1643874177
C     -3.5057711538     -3.8428526931     0.0643668239
C     -2.8442799915     -4.0501819527     -1.1502392425
C     -4.8577559776     -2.0570452856     -0.9413886702
C     -5.258462309     -0.1255927541     0.5141196439
C     -4.8052156744     -0.9091502054     1.650443924
C     -4.4335843861     -2.2295593504     1.4729951147
C     -5.1741389997     -0.6598507858     -0.7608113364
C     -3.7180539836     3.2110133719     0.0591186473
C     -4.4069348027     2.0550557359     -0.3319864835
C     -4.8738626087     1.2363653357     0.7324775178


