100

 C     1.9654155773     3.8742181729     0.7746915157
C     1.5487399813     4.0745900263     -0.6132572727
C     1.0205062295     4.0956079318     1.7950536853
C     0.246579476     4.5507278664     -0.8599049209
C     -0.4800747071     4.1516032239     -2.0171451514
C     0.0547194838     3.2783573495     -2.9904235204
C     1.4311835898     2.8467493408     -2.8223781807
C     2.1742855991     3.3105574204     -1.6710350457
C     3.3825597145     2.6555458613     -1.3454334847
C     0.9661168962     0.9363130034     -4.2993727865
C     1.8862162564     1.639816705     -3.5053415765
C     -0.4107019066     1.340971729     -4.4307885733
C     -0.8922244078     2.4733918645     -3.7574259403
C     -2.2659643678     2.4323924295     -3.3699959542
C     3.8662001101     2.5706241508     0.0096456069
C     3.0642938767     2.9980938958     1.0915235946
C     3.029950176     2.1832334349     2.3057423535
C     4.7008102347     1.4075838504     0.1031729914
C     4.6942149269     0.6534170293     1.2605572711
C     3.8392527059     1.0313821166     2.3525529255
C     4.7010463848     0.7487951615     -1.1910878233
C     4.6958189791     -0.7968858238     1.1840466502
C     4.6960046192     -1.4221548457     -0.0478543803
C     4.7025219965     -0.6305852564     -1.2655028168
C     3.0433634049     0.8954983457     -3.0440770179
C     3.8516394785     1.5087600428     -2.067075824
C     3.8686446619     -1.2899132696     -2.2287498135
C     3.0723795501     -0.5635500433     -3.1425635395
C     1.8685440072     2.2095000731     3.1751499765
C     0.9483964167     3.2479747807     2.958094145
C     3.3681303409     -0.1674832268     2.9825510711
C     2.1562215481     -0.2141345845     3.7064026629
C     1.4111004548     1.0142390735     3.8765513954
C     0.0323975994     0.9427547844     4.3274108425
C     -0.502612229     -0.3371934832     4.594412118
C     1.953253815     -2.6142295812     2.9708446811
C     1.5311959166     -1.5127949748     3.8362157867
C     0.2264204577     -1.5384447627     4.3654170337
C     1.010816746     -3.609398744     2.6475825245
C     -0.3302208575     -3.5740054311     3.1529516351
C     -0.725676736     -2.5598547874     3.9885147862
C     3.029211529     -3.0935625332     0.7462101606
C     3.0566336771     -2.4496112941     2.0592566899
C     3.8566997455     -1.2981654038     2.2338846672
C     3.8429599145     -2.5573475822     -0.2707276398
C     -0.9139251418     2.0086127908     4.0090318166
C     -0.4301233314     3.1583956964     3.3673731493
C     -1.9140271476     -0.6375694485     4.3592923767
C     -2.7451169454     0.3468345365     3.8808400164
C     -2.2862502157     1.6925992932     3.7731922763
C     -2.0388920869     -1.970477652     3.8758865695
C     -3.6414981968     0.0617917775     2.7845070589
C     -3.6693728147     -1.2016951517     2.1679217039
C     -2.8722541965     -2.275665598     2.7615097522
C     -2.9984521685     -3.4775794323     0.6168988286
C     -2.4807756184     -3.402203904     1.9307802134
C     -1.2323739775     -4.049743273     2.1392146785
C     -2.9987230703     2.2869227329     2.6836031407
C     -2.4743271055     3.3851406855     1.9629603818
C     -1.2254057874     3.8844480994     2.4234330415
C     -0.3178437888     4.5210308918     1.5075008187
C     -0.708354817     4.7390800088     0.2101059675
C     -3.6597920487     2.494894678     -0.0650993499
C     -2.8605783496     3.5426693702     0.5706770102
C     -2.0214263094     4.3520798201     -0.2481560882
C     -3.6276426124     2.3969173198     -1.4676334341
C     -2.7254896315     3.2003445771     -2.2597107475
C     -1.8929674477     4.1036734936     -1.6438523022
C     -3.8186446025     1.2755125778     2.0547010111
C     -3.8167460203     -2.4277440097     0.0512226739
C     -4.0316691321     -1.2258090975     0.7530277424
C     -4.178874079     0.0026109451     -0.0171629113
C     -4.0290266885     1.283131656     0.662016442
C     -4.0246239646     -0.0500800687     -1.4653159264
C     -3.8074106798     1.1589357975     -2.1543776378
C     -2.7337230275     -3.5438347709     -1.6605904624
C     -3.6326729123     -2.4527944857     -1.3637975724
C     -3.6578653111     -1.287104679     -2.1499886019
C     -1.8975683377     -3.4656254747     -2.7482620849
C     -2.018939715     -2.3806907408     -3.6616783775
C     -2.8547004321     -1.2636065456     -3.3727860553
C     -0.4313231533     -4.503368541     1.0425157052
C     -0.908533689     -4.4846522265     -0.27640955
C     -2.2803527288     -4.1231788545     -0.4389006233
C     3.3783844342     -2.503863568     -1.6263875047
C     2.16888984     -3.1084680962     -2.0346598002
C     1.4197299496     -3.8707965149     -1.0597701334
C     1.8703510632     -3.8605766088     0.3284805246
C     0.9458431829     -4.1929563201     1.3317340705
C     -0.4864271801     -3.8184196065     -2.5986576969
C     0.042870838     -4.2266650736     -1.3539588924
C     -0.3063819095     -0.9514351821     -4.6803450731
C     1.0330486718     -0.4948944073     -4.4514394363
C     1.9727427004     -1.2715945557     -3.746396691
C     -0.703187906     -2.1824275644     -4.2216408454
C     0.2462603031     -3.0187204427     -3.5205479341
C     1.5492359861     -2.5719906284     -3.2271894351
C     -2.9831791212     1.1945532183     -3.342178679
C     -2.4615417036     0.0193729176     -3.9311891324
C     -1.2099527314     0.1636356026     -4.5900194998


