100

 C     -4.789487901     -0.5665117794     -0.4974841675
C     -4.2911665295     -0.9546017904     -1.767222047
C     -4.3637185753     0.1427930916     2.2218254599
C     -4.4373522955     -1.1795324874     1.8825207553
C     -4.7199338607     -1.5605654016     0.5184633807
C     -3.3118286638     0.6004039292     3.08811035
C     -2.2516664738     -0.2666430408     3.4866491484
C     -0.8075330061     1.7573105014     3.5729238601
C     0.4790968245     2.3131843972     3.5829196044
C     -3.4387613381     -3.2019720513     1.5405573489
C     -4.0769276753     -2.8251116868     0.3011066436
C     -3.4291288457     -3.1243688706     -0.9280320824
C     -3.5955951766     -2.1822638891     -1.9620687833
C     -2.3223725956     -3.9986343514     1.5236004224
C     0.4571691979     -4.8367109757     -0.5353042218
C     -0.4378730691     -4.8415976765     0.5077301318
C     -0.9643015038     0.316990286     3.7477371531
C     -2.3690656303     -1.6820415552     3.1827486193
C     -3.5182331245     -2.1176057852     2.4652406716
C     -0.0397577351     -4.2901922623     1.7788794691
C     1.6420564847     1.4996403566     3.7436637831
C     1.5228732886     0.0952779696     3.8115480767
C     0.2215677777     -0.5352427044     3.7836649197
C     0.1323646594     -1.9261005775     3.3940271933
C     -1.1673533272     -2.5012532438     3.1253828072
C     -1.2171941707     -3.7092063457     2.384528359
C     1.2316623146     -3.7549554708     1.9774796874
C     1.3296524182     -2.6241128383     2.9008740784
C     -1.8059627026     -4.515147108     0.2716774309
C     -2.2317235346     -3.9583867891     -0.9538429731
C     -2.5451074427     -1.9412307544     -2.9344194545
C     -2.6574692062     -0.6009208115     -3.3888971264
C     2.3818216754     -1.6529407471     -3.1862212126
C     0.9729241054     0.347425583     -3.7359925947
C     0.0579092946     -4.2764820704     -1.8022286883
C     -1.214613971     -3.742377776     -1.9967690883
C     -1.3149469134     -2.6047594652     -2.9115481712
C     3.5318901116     -2.0915719316     -2.4720361213
C     1.2341372776     -3.688483737     -2.4034348162
C     1.1817994342     -2.4750460723     -3.1350888718
C     -0.1191043121     -1.900551835     -3.3993666625
C     -0.2111812865     -0.5069578475     -3.7784195765
C     -1.5137808095     0.1210696776     -3.8015235864
C     -1.6358549167     1.5246237526     -3.7229494209
C     -3.7319741797     0.0198111797     -2.6738930131
C     -2.7354151212     2.1557397108     -3.0531802334
C     -3.7393581854     1.3992265824     -2.3921734279
C     -2.2315378163     3.3824241749     -2.4927064519
C     -2.7244761678     3.8200677278     -1.2831292862
C     -0.8321499968     3.4933498339     -2.7758971536
C     -1.823001151     4.3719743171     -0.3069250212
C     -0.437446888     4.4884171897     -0.5536620761
C     0.0721471984     4.0508576975     -1.8499521348
C     3.0985535848     2.0091303457     -2.7629902424
C     1.8374829454     2.5937815516     -2.911966275
C     1.4595469411     3.6865154303     -2.0079711341
C     2.3278745901     4.0144020803     -0.9478032624
C     2.261498409     -0.2355214289     -3.4793469729
C     0.8131920721     1.786042216     -3.550250087
C     -0.474579582     2.3393249371     -3.5560249277
C     3.3198689587     0.6306573183     -3.0742227906
C     -3.7828796736     3.085245675     -0.6094259788
C     -4.2722733151     1.8542891824     -1.0996436845
C     -4.7600551997     0.859357811     -0.13513097
C     -3.5724772966     3.3007248144     0.7921330448
C     -3.9651713088     2.3428328287     1.6944695288
C     -4.6477791739     1.1683426399     1.2407143492
C     -2.3268282659     4.0022457937     0.9874619236
C     -3.0933556887     1.9816499192     2.7873665999
C     -1.8334902459     2.5677526787     2.9407809315
C     -1.4578205813     3.6681056337     2.0451167919
C     1.8232879255     4.3732357545     0.3493542145
C     0.4375013109     4.4849471612     0.5969616119
C     -0.0711778709     4.0364956401     1.8898848102
C     0.8342729201     3.4738323627     2.8115737444
C     2.7259097104     3.8157892671     1.3213396915
C     2.2338805404     3.3679417072     2.5275481003
C     3.7457969603     1.3886945113     2.4119603787
C     2.740298679     2.1380938413     3.0786971599
C     3.7412570829     0.007168868     2.683184855
C     4.6546752704     1.1873005395     -1.2225693419
C     3.9696387071     2.363796811     -1.6673897311
C     3.5749728868     3.3139934455     -0.7578000096
C     4.7675842082     0.8681000227     0.1508891584
C     4.2777618473     1.8546650203     1.1229367785
C     3.7858258418     3.0883034195     0.642081297
C     4.7324591015     -1.546869399     -0.5210721889
C     4.4490745142     -1.1560634281     -1.8821968574
C     4.3727118964     0.1686482317     -2.2114478136
C     4.3024472849     -0.9591694166     1.7691440709
C     4.7999578405     -0.5604164482     0.5023954859
C     2.3399213417     -3.9821699182     -1.5447237423
C     3.6094169948     -2.1897127445     1.9546507767
C     3.4448929646     -3.1242784164     0.9134883121
C     4.092065512     -2.8143549614     -0.3133360239
C     3.4546595853     -3.1831003188     -1.5556144804
C     2.6680339303     -0.621194611     3.3934430745
C     2.5584381064     -1.9582381421     2.9287934405
C     2.2492064588     -3.9609365293     0.9329517678
C     1.824585315     -4.5092479263     -0.2967662737


