100

 C     3.9941163793     -2.293693777     0.852960203
C     4.3797196985     -1.5785820666     -0.2896084599
C     4.8516939393     -0.2544115132     -0.0561457232
C     4.8525585044     0.7221574053     -1.1052729797
C     4.3381173653     0.3869010504     -2.3454183773
C     3.1169139274     -3.4055325487     0.7718789752
C     2.4467223369     -3.7465475153     -0.4281570045
C     2.7170394707     -2.9370625245     -1.6108108547
C     3.7438529783     -1.922189565     -1.5556978902
C     3.7473071741     -0.9189366223     -2.5643633109
C     0.5408207799     -3.6315980765     -2.539490927
C     1.6940027112     -2.838931268     -2.6485229901
C     0.2711431469     -4.4262139609     -1.3590461789
C     1.1780730312     -4.4544026377     -0.2896984261
C     0.5941907082     -4.6428876077     0.9972142426
C     3.803492232     2.9436546068     -1.2287031185
C     3.295388789     2.6037860534     -2.5418663191
C     4.561930845     2.0229560909     -0.5201728891
C     3.5508525383     1.3553885663     -3.081061061
C     2.4925956392     0.6487803837     -3.7458425431
C     1.9828943002     3.1766391338     -2.6691057457
C     0.9448787497     2.5225183345     -3.3567128434
C     1.2162217656     1.1947597394     -3.914605719
C     1.5772638536     -1.6584193015     -3.486051779
C     2.6565511922     -0.7595571093     -3.4656971392
C     -0.6967904488     -3.2480228956     -3.1312988812
C     -0.8760088421     -1.9977116064     -3.7778240982
C     0.2955099489     -1.1753983692     -3.9602859032
C     0.128144303     0.261610076     -4.1538053785
C     -1.163274105     0.7975665277     -4.1435166399
C     -1.0956852138     4.4449034731     0.8605258186
C     0.2211298134     4.3988369661     0.3851206603
C     2.8046447815     3.7070736018     -0.5518128148
C     2.5662601471     3.5557246898     0.8296906485
C     1.7035831469     3.9248336261     -1.4772629467
C     -1.4370736883     2.1070572167     -3.5750590976
C     -0.4081579928     2.9092022662     -3.0303508648
C     -0.7076151506     3.7352299408     -1.882035048
C     0.3967801821     4.1648859723     -1.0380793871
C     -2.0546707271     3.7201423648     -1.3340343285
C     -2.2154101583     4.1239278119     0.0085434989
C     1.2889273469     4.0267257064     1.3181626957
C     3.3146098614     2.5348139139     1.5661054432
C     4.3134856343     1.8226774566     0.8731317776
C     -1.4301640667     4.0329956505     2.1954484367
C     -0.4315079735     3.6229065045     3.0467018759
C     0.9348957479     3.6478715159     2.6204152837
C     -1.7325293663     0.3687319229     4.1467236899
C     -0.6437513771     2.4841406667     3.8950127049
C     -1.8386755987     1.7282262159     3.7929012422
C     -4.1119335721     2.6097461752     0.3185794881
C     -3.2293216603     3.5302826334     0.8441990708
C     -2.6990801524     3.3327263613     2.1571180808
C     -4.3800080346     1.3879717143     1.0368755553
C     -3.7188202731     1.0725113768     2.2314272105
C     -2.8845093546     2.1157189128     2.8544845959
C     -2.7510751565     2.0953834931     -3.058875628
C     -3.0890045413     2.8559595866     -1.9109643623
C     -4.1184159664     2.3364810288     -1.0759673375
C     1.6043430701     2.552697489     3.2873060896
C     2.7168634043     1.9110626553     2.744696188
C     2.9195853706     0.4929025612     3.0515430676
C     3.867269271     -0.2264519084     2.2314462844
C     4.5362606058     0.427187349     1.1630477984
C     3.763819929     -1.6253325812     2.1174921818
C     0.6303005038     1.8437237038     4.0676820901
C     -0.4845061591     -0.2368521043     4.4536485651
C     0.7471549624     0.4555784795     4.2798917439
C     1.9181235721     -0.2495561563     3.7875359718
C     1.8306557075     -1.7026177486     3.6440179479
C     2.791241701     -2.3563103916     2.8501070503
C     -0.5869427431     -1.6369877156     4.1634739289
C     0.538957369     -2.3886454769     3.8084036274
C     0.2605492815     -3.576411315     3.0689434731
C     1.2414759798     -4.1252816483     2.1742490977
C     2.4662178843     -3.5283767857     2.063327752
C     -1.8803692171     -1.8859466132     3.5968817207
C     -3.0283844933     -2.6475247232     1.5429988727
C     -2.0841483869     -2.8877737599     2.6234679279
C     -1.0139227563     -3.8010051561     2.4648162708
C     -3.5318935253     -3.0022005141     -0.8379289506
C     -2.8831425987     -3.445950631     0.3266071663
C     -4.7081713865     0.3839848225     0.0615528467
C     -4.2800874624     -1.7992924371     -0.870082176
C     -4.409805451     -0.9895913096     0.2815315586
C     -3.7546312243     -1.3937918308     1.5112870195
C     -3.4746504491     -0.3492196612     2.5122487907
C     -2.5745530074     -0.6430666722     3.5409873002
C     -3.3089077384     0.7815076104     -3.2947084173
C     -4.1325730002     -1.2059644503     -2.1887525556
C     -4.1969728333     0.195518612     -2.358932335
C     -4.5770970041     0.9736268706     -1.2316353808
C     -1.7371211092     -3.8121444946     -2.3032152747
C     -2.9338485678     -3.1652800397     -2.1568630332
C     -3.2272118828     -2.0073218258     -2.9487948306
C     -2.2125451509     -1.4055009101     -3.7512252117
C     -2.3256287944     -0.0111035731     -3.9658389069
C     -0.8059843542     -4.4821040826     1.2024401772
C     -1.7091290435     -4.3058126614     0.138016629
C     -1.1418098221     -4.4507087432     -1.1615882684


