100

 C     -4.057614365     -1.676992071     -1.9092994657
C     -4.2540946173     -0.292728151     -2.0125528514
C     -4.910103797     0.3183241758     -0.910794796
C     -4.8216678007     1.728053998     -0.6864250784
C     -4.1030118572     2.5089206507     -1.5720010733
C     -3.0107574144     -2.3426734318     -2.6394261167
C     -1.9738567524     -1.6030850731     -3.2549336314
C     -2.1266695017     -0.153304346     -3.3601532034
C     -3.3284498709     0.4763333193     -2.8323734251
C     -3.338280893     1.8761172069     -2.6393754258
C     0.3396754536     0.0095255017     -3.8011874103
C     -0.9647426638     0.6473837396     -3.6317252567
C     -0.9937999485     2.0733384348     -3.3452708102
C     -2.1717109527     2.6453044633     -2.84999226
C     1.4701474668     0.8341608165     -3.8425770213
C     -0.6455267608     -2.213385965     -3.3119154157
C     -0.4656846912     -3.4970534379     -2.7377525168
C     0.5283878107     -1.4046552624     -3.5138742212
C     -3.963835257     3.0072570158     1.2155759564
C     -3.2685754496     3.8807835273     0.2911291752
C     -4.717134035     1.9543914278     0.7447143516
C     -3.3330148231     3.6275696864     -1.0825337108
C     -2.1451771626     3.7260796876     -1.8628072771
C     -2.0162693783     4.2249592669     0.8860528278
C     -0.8459178934     4.3807908631     0.1288675835
C     -0.9273126559     4.1508179525     -1.3120206103
C     1.4208670329     2.2363321038     -3.5156923146
C     0.2210570541     2.8323429486     -3.1221379129
C     0.2641896039     3.8420956402     -2.0717715095
C     1.4939921095     4.1140085298     -1.4572850144
C     -1.8842785453     1.2681757617     3.7229353908
C     -3.0573478503     1.5220960082     3.0021212375
C     -3.1240812659     2.8020238197     2.369069062
C     -1.9511819238     3.5996024162     2.1968608006
C     1.5716779115     4.2367346643     -0.009282887
C     0.4403841284     4.2112030958     0.8023429126
C     0.5276174919     3.5605730617     2.109765484
C     -0.7136170431     3.2357402736     2.776022218
C     -0.752357245     2.1378910899     3.6655098305
C     -3.7994067768     0.3802913045     2.4604590716
C     -4.6736406288     0.6508239836     1.3882005456
C     -1.4020922109     -0.0714184998     3.9295185139
C     -2.0387023139     -1.1915751681     3.3485654158
C     -3.2785974033     -0.9854164684     2.6199377381
C     -3.7124623988     -2.0177343148     1.7081186615
C     -2.9754373473     -3.2344266492     1.654059263
C     -0.0010485706     -0.018580253     4.0989639046
C     0.8504356038     -1.089349239     3.7697023337
C     0.2456791864     -2.2986876642     3.281160259
C     -1.196278412     -2.3520208757     3.1153478844
C     -1.7331307936     -3.3846923449     2.3214782347
C     2.4436262526     -2.9603336997     2.4253464281
C     1.0796898227     -3.2218930614     2.5264392562
C     3.8370486371     0.8788240096     2.62155451
C     2.6513978379     0.6304941077     3.3246205405
C     2.2409639444     -0.763764634     3.5299830895
C     3.0465153186     -1.7820548569     2.9880190292
C     2.8176861176     3.6790577201     0.4143701197
C     2.9037246255     2.9804734599     1.6410213167
C     1.732845207     2.8590658033     2.4792712758
C     1.6495946458     1.6946595347     3.3633683501
C     0.4137441404     1.3572750973     3.906999834
C     3.9429810941     2.0220429084     1.7337296431
C     -4.4834240141     -1.6641162454     0.5246591693
C     -4.9079458801     -0.3326838976     0.3709524831
C     -2.9144119736     -4.0399190775     0.4426596572
C     -3.509479177     -3.584387882     -0.7206315266
C     -4.2895164772     -2.3863604872     -0.6859808948
C     -1.6165420317     -4.6738062315     0.3834638007
C     -2.7647343837     -3.5939738417     -1.9689340798
C     -1.5172802879     -4.1667606865     -2.0200461492
C     -0.9441398481     -4.7797594959     -0.8383824638
C     0.5032588555     -4.1028444235     1.5234405223
C     -0.8843264891     -4.2755546403     1.5420837278
C     0.462353088     -4.5787132035     -0.885808906
C     1.2164121012     -4.3157712725     0.2683143887
C     4.3262131603     -2.4237018327     1.1473804008
C     3.2063053493     -3.3042495762     1.2286702636
C     2.5395471123     -3.7597110818     0.0786179884
C     4.7629861075     -1.9748819977     -0.0991000368
C     4.0356107801     -2.3497370609     -1.2697315237
C     2.9284217226     -3.2045383861     -1.2140806037
C     5.1553308725     0.2744773864     0.7992799759
C     4.6409622618     -0.1767504115     2.0775056165
C     4.2434014629     -1.4927543697     2.2495675818
C     5.1961927002     -0.6011836455     -0.2722464512
C     3.548670749     3.2505691804     -0.7452754982
C     4.4243803511     2.1439717086     -0.7023230201
C     4.7202836256     1.642042774     0.6005393726
C     3.5271705891     1.4319648069     -2.9012107512
C     2.680616512     2.594368263     -2.9351831597
C     2.7090697926     3.5108540959     -1.8936117665
C     4.7782631476     -0.1544329799     -1.589393297
C     4.4310395282     1.2039225955     -1.8347048303
C     0.7690947493     -3.8487932707     -2.1146014703
C     1.9063884587     -3.0676349831     -2.2482986227
C     1.823231821     -1.8795080736     -3.0766959721
C     4.0486727852     -1.2241243305     -2.1859301191
C     2.9522891361     -0.9783751362     -3.056658087
C     2.7736645165     0.3524141015     -3.4742165523


