100

 C     4.2584001755     2.1583896822     1.9426101002
C     3.2141451398     2.3689700084     2.923630947
C     4.8341792246     0.9108047432     1.7941307536
C     2.7836040397     1.3107473409     3.7111260029
C     1.3846796452     1.1441652302     3.9530287815
C     -1.9156706245     2.4196836901     2.7564078544
C     -3.2367469486     1.9559018662     2.6675417042
C     -0.9420861588     1.5563911558     3.3796982805
C     0.4197842602     2.028360742     3.440778592
C     0.8666409258     3.1240234521     2.5855775894
C     2.246369946     3.2621796279     2.3531480604
C     -0.1476032278     -0.7830255382     3.7166051954
C     1.1114669789     -0.270867501     3.991072932
C     -3.8714728978     -2.0757283174     2.1596253922
C     -2.7220301059     -1.7420557196     2.9192504709
C     -2.5581246141     -0.345135696     3.2988382966
C     -1.243788478     0.1627803617     3.5913873382
C     -3.5648191842     0.5868980923     2.9617994982
C     -0.2326282667     -2.1284852549     3.1782513233
C     -1.6056067868     -3.7363409912     1.9774518234
C     -1.543307925     -2.6111358041     2.8196264263
C     3.3756128508     2.951413848     -1.5711738175
C     4.1771612373     2.4198088087     -0.5373225547
C     3.9351002256     2.9294160012     0.7692087331
C     2.7322451149     3.6584606545     1.051093968
C     0.4223558122     4.1030856581     0.3207777534
C     1.8375257332     4.0273887693     0.032288178
C     2.2649291179     3.7943877985     -1.2998953467
C     -1.8564898642     4.0502629088     -0.5302642853
C     -0.4985555515     4.1253943339     -0.7993219053
C     -1.4619205563     3.4502855086     1.818759878
C     -0.0590223612     3.6810128314     1.6120464386
C     -2.3516636272     3.8375992359     0.7925452087
C     4.7203572921     1.075762055     -0.7058035101
C     5.110231779     0.3883233671     0.4702391801
C     4.9805698062     -1.0371367008     0.5609294488
C     4.3161175986     0.2852821803     -1.8813927605
C     4.3785827157     -1.110868961     -1.799065496
C     4.6756243415     -1.770145047     -0.5576125206
C     1.8475769452     2.7034130138     -3.3080489727
C     3.070088379     2.1924519954     -2.7787014295
C     3.4034472976     0.8322136922     -2.884087403
C     0.9853875884     1.8711313157     -4.0096894445
C     1.3015722766     0.4896211887     -4.1528275407
C     2.4669779732     -0.0555621381     -3.6008841822
C     -0.0666945354     3.7383518717     -2.1402583453
C     1.3047934266     3.642145988     -2.3748304805
C     -0.424194099     2.0124281056     -3.8552284462
C     -0.9778470171     2.9362532702     -2.9647557549
C     2.1082130135     -3.8711264128     -1.8300366161
C     3.8644089881     -2.9475176532     -0.4360640035
C     3.2705580317     -3.1524113676     -1.726642193
C     2.4343412249     -1.4818050242     -3.3292950934
C     3.4687357747     -1.9838845073     -2.5298197314
C     1.0728776806     -3.4518387754     -2.7329274783
C     1.169914755     -2.2364748752     -3.4167559204
C     1.5007197336     -4.4112185912     -0.6480785829
C     1.8989671188     -3.9699123863     0.6410821832
C     3.1414072518     -3.224035671     0.7518670311
C     3.3654798119     -2.3695939484     1.9132830095
C     4.3972045366     -1.3981234153     1.8360785575
C     4.3841863836     -0.1971477257     2.6235611447
C     2.2661723073     -2.1349502886     2.8535594652
C     2.3175270148     -0.9771506908     3.6533011429
C     3.36867752     -0.0011997194     3.5425527535
C     0.1206913518     -4.6097016472     -0.9800286313
C     0.8547100971     -3.8002347828     1.6567448068
C     0.9690346022     -2.7644352622     2.6653014068
C     -0.8094683767     -4.6589211478     0.0169956539
C     -0.4344252233     -4.2770741258     1.3639182381
C     0.0342246532     -0.2405488878     -4.1699971225
C     -0.0844404231     -1.5582550282     -3.708234128
C     -1.3957384043     -3.2208173893     -2.3704337515
C     -0.1869844175     -3.9276562894     -2.2150326337
C     -1.0148753291     0.6866343856     -4.0110618751
C     -2.2352128116     0.3350972533     -3.4200718255
C     -2.4469393948     -1.0442516789     -3.0256051032
C     -1.3612280939     -1.9887875101     -3.1518785343
C     -4.4677228947     -0.2917865925     -1.826190362
C     -3.5911876628     -1.3471153375     -2.164861019
C     -3.5736235645     -2.5284366687     -1.3104086974
C     -2.4544277308     -3.4497428337     -1.3936868695
C     -2.1420489658     -4.2242013183     -0.2437575446
C     -3.9616365783     3.0614026776     -0.7147863476
C     -2.8148324278     3.4546302866     -1.4608531017
C     -2.3453680099     2.7009452494     -2.5467443962
C     -4.6793357702     1.9267351667     -1.0904619845
C     -4.1644532687     1.0922934144     -2.1421502679
C     -3.0061327663     1.4289111643     -2.8484904986
C     -5.0113058735     1.3220025848     1.2660105738
C     -4.1467204865     2.4196460537     1.6417794941
C     -3.6829382058     3.3025992685     0.686890089
C     -5.2693732325     1.0757508949     -0.0868903085
C     -5.0739433807     -1.3424226742     0.2902844226
C     -4.8001043734     -1.0829532855     1.6995528672
C     -4.6991097161     0.2194093004     2.1476053794
C     -5.2114691961     -0.2835365613     -0.5880245558
C     -2.6903132346     -3.8727414059     1.0339595347
C     -4.3296105567     -2.4965366694     -0.105898638
C     -3.7705764985     -3.0529022759     1.1036081084


