100

 C     4.7753795589     1.0244708545     0.8227461077
C     4.4371904152     2.2284809809     0.1412256074
C     4.2818649131     -1.5510529181     2.0133616275
C     3.9647978258     -0.4033154607     2.6999220344
C     4.2552838848     0.8967880818     2.1325258254
C     3.420517356     -2.6863965714     2.1197075803
C     3.2599838059     1.798495607     2.6234979141
C     2.8149453501     2.9221298337     1.887313304
C     3.5109251019     3.1667888286     0.6736799112
C     1.4582864858     3.4044178603     2.0788998834
C     0.8782841748     4.2732994708     1.0442125126
C     -0.4882074871     4.5476599842     1.080732707
C     2.3385686002     1.0512793296     3.4282272448
C     1.0139945209     1.4312117985     3.5662918518
C     0.5851673124     2.7065672278     2.9830975381
C     -1.734652582     2.0395190076     3.482375835
C     -0.83401335     3.0026481188     2.9855502072
C     -1.3520904965     3.9491895038     2.0561069445
C     1.7972956951     -1.3836506654     3.4484146746
C     2.740319406     -0.3328187283     3.4451186971
C     -1.2799546053     -3.9332972384     1.9938307355
C     -0.2734775909     -3.2412088921     2.7001371889
C     -0.6449478165     -1.9805380356     3.3332882524
C     0.3991741888     -1.0341642942     3.6693986128
C     0.0627797113     0.3633665815     3.8502558799
C     -2.0281511631     -1.5327777468     3.2405679875
C     -2.3165729436     -0.201774637     3.5815773383
C     -1.2891756961     0.7228115986     3.8651007425
C     2.165632799     -2.627762269     2.7946293964
C     1.386159204     -4.3906877295     1.2675068863
C     1.1196194127     -3.5384725845     2.376929722
C     1.5484299711     4.3833453029     -0.2615157553
C     2.8276239378     3.8229168822     -0.4270593574
C     -1.2747195839     4.7150230072     -0.1322380058
C     -0.671380292     4.5655289486     -1.3700403592
C     0.7620463196     4.462365945     -1.4389374862
C     -2.5639339498     4.1713866158     0.0810781975
C     -3.196259604     3.3889893583     -0.9280673814
C     -4.1839692563     2.4783207367     -0.485345958
C     -3.0704731199     1.9189437825     2.9750672635
C     -3.5132879035     2.7552284786     1.910424228
C     -2.6473448092     3.7867131804     1.4825686962
C     -4.3754985667     2.1799360134     0.9415290251
C     1.083744648     3.6669463855     -2.5838072838
C     2.2798399467     2.9437439447     -2.6682019131
C     3.2301918951     3.2024421852     -1.6366569354
C     4.2473608028     2.2383405976     -1.2974103981
C     4.3296367205     1.0740337735     -2.015147878
C     -0.1535385577     3.1431240869     -3.1081745203
C     -0.2341268094     1.8502677121     -3.6150991464
C     1.0072077625     1.0635897205     -3.7318793883
C     2.254764015     1.6381329652     -3.311039206
C     3.3378406696     0.7588419923     -3.0329921933
C     -0.3728828686     -0.9361546838     -3.9487370233
C     0.9077287526     -0.3750119414     -3.8156629259
C     -2.4761452744     3.0662279506     -2.1544346355
C     -1.2517071305     3.7366714028     -2.3752117971
C     -4.5112074586     1.3373526545     -1.2361744402
C     -3.7443865562     0.9285052853     -2.3777535718
C     -2.6756372803     1.7915462502     -2.8200578406
C     -1.5500152424     1.2120173798     -3.5679752538
C     -1.58600382     -0.1474700327     -3.8690770547
C     4.8010400968     -1.4544490262     0.6498906887
C     5.0030732178     -0.19462894     0.0340922977
C     4.752077265     -0.150261082     -1.3681367396
C     4.0878099155     -1.214296532     -2.0352898918
C     3.7810722296     -2.4283496429     -1.4033342072
C     4.2720403367     -2.5645268485     -0.0706579162
C     2.5284161123     -4.1778884468     0.4270717261
C     3.5449093625     -3.3862097477     0.8672840745
C     1.9577925222     -1.2586713641     -3.3473087232
C     3.1833372537     -0.6449829959     -3.0238186382
C     -0.6629110551     -2.2438695278     -3.5130851043
C     0.292414069     -3.0536108638     -2.8447114882
C     1.6562453983     -2.5742117347     -2.7950072283
C     2.5858466221     -3.1602403376     -1.8349428252
C     2.0843576377     -4.1399585436     -0.9627404317
C     -2.0752555993     -2.2990713161     -3.1972612041
C     -3.7666272438     -2.7142452296     -1.5509037963
C     -2.5763686008     -3.1575300493     -2.202596194
C     -1.6377990195     -4.0389862238     -1.5121301896
C     -0.2176830036     -4.0260576008     -1.8901173282
C     0.714777304     -4.5463307625     -0.9727169589
C     -5.0175163131     0.3557829539     -0.291958759
C     -4.9121605715     -0.9750661163     -0.5459101794
C     -4.331530954     -1.4331072708     -1.7937888848
C     -3.7165304123     -0.4981062842     -2.6761438513
C     -2.6392176029     -1.0043146743     -3.4342422126
C     -3.4379498922     0.5371390413     3.0237593453
C     -4.284561947     -0.0384957927     2.061708508
C     -4.8140613997     0.8418858678     1.0552104477
C     -3.0729936876     -3.8114092702     0.5130031494
C     -2.612437242     -3.4160946362     1.8222680118
C     -3.0186476058     -2.2107432938     2.4070714666
C     -3.9869938641     -3.0319619436     -0.1456617348
C     -4.574805804     -1.9154438252     0.51175513
C     -4.1032528941     -1.4570362876     1.7637102232
C     0.3372273645     -4.8069600193     0.3973899087
C     -1.9772576612     -4.4283061059     -0.1947480364
C     -0.9655476835     -4.6605583045     0.7876070937


