100

 C     2.7244336976     -0.9744215639     -3.4339946613
C     3.7385154221     -1.1998943355     -2.4743126071
C     4.4408744678     -0.0378088045     -2.0650296339
C     5.1266879153     0.0151650038     -0.8052683729
C     5.0743528921     -1.0877111203     0.0325667933
C     1.6515368719     -1.9131572794     -3.6116638864
C     0.2103668147     -3.5750521068     -2.6950856893
C     1.5135885234     -3.0287818565     -2.7571071962
C     2.4284300323     -3.2173228428     -1.6417316144
C     3.6112553594     -2.3459190016     -1.5678270832
C     4.3174630718     -2.2637265295     -0.3524727043
C     4.8202039219     1.5284168356     1.093795467
C     4.7150840987     0.386170796     1.9692478195
C     5.0025545113     1.3532608058     -0.2708493127
C     4.8724243178     -0.8890770094     1.4512720985
C     4.037052264     -1.9408878606     1.9412548409
C     3.0298673329     -1.6806240969     2.9067873156
C     2.0097725943     -2.6351609399     2.9818563117
C     2.6005718454     -3.6297760846     0.8030049873
C     3.7610888906     -2.8300642999     0.8402742869
C     -1.5743455824     -4.4778348415     0.8967070677
C     -0.1475791398     -4.5324355993     0.8628857181
C     0.4822146572     -4.0735566302     2.0264154019
C     1.8535281548     -3.6545492553     2.0060082707
C     1.9396068407     -3.8921500389     -0.4643241866
C     -0.2209239955     -4.3401333793     -1.5711110923
C     0.5723584167     -4.4288972281     -0.4196110328
C     2.0889324668     4.0155537964     1.1499284307
C     3.2330756388     3.385065123     0.6336148136
C     3.900083319     2.5342043863     1.5445835902
C     3.2012536832     2.0070587308     2.6940186887
C     1.8917259485     2.4036116295     3.0117207471
C     1.4593072056     3.5724293171     2.3434045691
C     -0.8981362138     3.071043378     2.8281410608
C     0.0816714979     3.9147964805     2.2688675949
C     -2.2183916092     3.2794530266     2.3363000757
C     2.7242409646     -0.319268567     3.3242949801
C     3.6361814097     0.6631997382     2.9043806096
C     -1.5120315143     0.7352753891     3.4747302906
C     0.7048870258     -2.3057065316     3.4896485395
C     0.3089058115     -0.967477002     3.7154630922
C     1.3300245558     0.0670451966     3.6273736666
C     0.9139438491     1.4307607963     3.4781732935
C     -0.5096440732     1.7664454912     3.3856002706
C     3.3013443553     3.1170935624     -0.8041539014
C     4.2092258613     2.1271069887     -1.2111259437
C     1.0711899624     4.5618397662     0.2939893541
C     1.0629614235     4.2314649941     -1.0835040714
C     2.1221163387     3.3972759161     -1.635815564
C     -0.2087814674     4.2512229886     -1.724166469
C     -0.1451852994     4.6325645904     1.0391313533
C     -2.4760892189     4.0093072232     1.1273472482
C     -1.4095187702     4.5840298365     0.4010267769
C     -1.4201562608     4.4683565141     -1.0185398815
C     -0.5009833812     3.336621063     -2.7922104739
C     0.4345307071     2.4284194991     -3.2483911774
C     1.8186117981     2.5360809724     -2.7480555675
C     2.7301629457     1.4670913704     -3.0747038265
C     3.910495166     1.2788928959     -2.3266672837
C     2.242727875     0.3213465065     -3.7453296789
C     -1.9177431878     3.0320370496     -2.7664025803
C     -3.6213012813     1.3401579161     -2.5813351934
C     -2.4078346757     1.758702991     -3.1727173594
C     -1.4893848703     0.7771094806     -3.6775343858
C     -0.0811469327     1.1695951981     -3.8286397398
C     0.85493022     0.1881475528     -4.1113816053
C     -3.6110328712     3.3991912249     0.4686186887
C     -3.6030998785     3.2151725732     -0.9606803772
C     -2.490738178     3.741673436     -1.6887099695
C     -4.2109560426     2.0541345017     -1.4841030486
C     -3.9166808468     -0.0497298714     -2.4217598283
C     -3.0509680543     -1.0446320321     -2.8873303731
C     -1.8434989421     -0.6260774354     -3.5993728654
C     -0.8076793512     -1.6103175075     -3.8068598065
C     0.5115552779     -1.2017111352     -4.0879373221
C     -0.9323169356     -2.893934292     -3.2370456414
C     -4.7131294394     -0.2085880517     -1.2206087183
C     -4.7475737297     -1.2342290984     0.9651165965
C     -4.6495257454     -1.3927608439     -0.4544486524
C     -3.9129619314     -2.5262916042     -1.0034125353
C     -3.1400978999     -2.3613004451     -2.2385601223
C     -2.0957000179     -3.2714590983     -2.4852206001
C     -4.1058068392     2.3826926884     1.3119202838
C     -4.6769999261     0.0506819194     1.5630227112
C     -4.7578755856     1.22708323     0.7919655346
C     -4.8424263093     1.0783859854     -0.6213662438
C     -2.0524900275     -1.7130744865     3.3044994652
C     -1.1105142675     -0.6521839045     3.6221201994
C     -3.358669154     -1.364689229     2.8614499301
C     -3.7575917143     -0.0354333415     2.7055584309
C     -2.8831053842     1.0334723658     3.0357352196
C     -3.19922581     2.2730319417     2.4523450671
C     -3.5014839671     -3.2793950803     1.3355390878
C     -2.2764296983     -3.7873709736     1.9189423388
C     -1.5806142509     -3.0262186288     2.907482206
C     -0.2097338566     -3.2902963227     3.0052383971
C     -4.0516999577     -2.1409580489     1.8403096832
C     -1.6695710785     -4.2387073986     -1.5165119739
C     -3.499029941     -3.5336031425     -0.0919770658
C     -2.3464331163     -4.3399438853     -0.3280403448


