100

 C     1.7690347573     -4.1081577002     -0.8191167194
C     2.8846685261     -3.8529447101     -0.0049028822
C     -0.7614778903     -3.8795778824     -2.1161475378
C     0.3364841348     -3.1871502642     -2.6660594374
C     1.6599090773     -3.3712932839     -2.0840142736
C     2.7210048611     -2.4768416753     -2.4690067327
C     2.4008588702     -1.4413455506     -3.4021595662
C     -2.0891132157     -3.4209587138     -2.2740753703
C     -2.4056736509     -2.182154605     -2.9053010317
C     -1.3225842285     -1.4439431688     -3.4855491919
C     0.0090177187     -2.0080008184     -3.4452056908
C     1.0812720426     -1.1755566279     -3.7987872286
C     -2.6757466359     0.6064689596     -3.3663365852
C     -1.4655171015     0.0069002565     -3.6777744925
C     -3.7564406539     -0.1291973631     -2.7622264406
C     -3.6278387453     -1.5047194103     -2.4878375251
C     -4.358342643     -1.9772485702     -1.3569114058
C     3.8733965443     -2.2470905743     -1.6007720772
C     3.9044099712     -2.9170237816     -0.365509446
C     3.0947655943     -0.1656385395     -3.390148176
C     4.157585154     0.0461341066     -2.5650501432
C     4.5805178482     -0.9971848717     -1.6583199624
C     3.2616371417     3.3436541234     -1.1494977863
C     4.3291138174     1.3418833013     -1.9506564745
C     3.3706172568     2.3908435912     -2.1680631896
C     -0.308761097     0.8881546708     -3.7340584267
C     0.9202728198     0.2698649327     -3.9493567147
C     2.1415185383     0.8968874557     -3.6608656628
C     0.932373027     2.8350748142     -2.7557301412
C     2.1896239883     2.147919026     -2.9979919499
C     -0.3128934528     2.2325660087     -3.1803302513
C     5.052322832     -0.3431931817     -0.4967541679
C     4.8745741915     -0.9257348286     0.793155639
C     4.3659551081     -2.2468088994     0.835317852
C     4.5470291194     -0.075135944     1.8863923943
C     4.9085301456     1.1052184009     -0.6808670687
C     3.8591863544     3.1219876481     0.1478414918
C     4.6057379363     1.9485114734     0.4243903698
C     4.4229797607     1.3555126711     1.7070357192
C     3.5919971113     -0.4784862782     2.8592876976
C     3.0285675062     -1.7696942693     2.8700055352
C     3.5564314523     -2.6949940219     1.9257773908
C     2.7430573025     -3.7719031611     1.4386940869
C     1.5515921973     -4.0406050738     2.0479015014
C     2.8142940099     0.6730838484     3.2388420687
C     1.4402661412     0.589627304     3.5201437124
C     0.8327975529     -0.7430461155     3.6025828641
C     1.6560958523     -1.9094510853     3.3407121336
C     1.0085106117     -3.1282700545     3.0344804626
C     -1.4099482492     0.3521464828     3.5141065395
C     -0.6018671763     -0.8576559036     3.5689440195
C     -1.226891682     -2.1309113753     3.2251809956
C     -0.3958088071     -3.2242695268     2.9488659688
C     -2.7777387741     0.2040948036     3.2388403967
C     -1.6357182117     2.7576104803     2.827575447
C     0.4188027338     3.9882000769     2.2491041146
C     1.2526690713     2.9885878485     2.785241408
C     0.6238724905     1.7944620986     3.3360365944
C     -0.8080124987     1.6770731333     3.3470973229
C     -0.9869220903     3.8791365328     2.2760422226
C     3.3988558127     1.8151112576     2.5766316997
C     2.9852513194     3.6896857247     1.1275930534
C     2.6275609735     2.9577808856     2.2929546329
C     -0.6518410615     -4.5752968416     -0.8430452888
C     0.5695410746     -4.6175042069     -0.1557070751
C     0.4712694717     -4.5768252461     1.2711173212
C     -0.7413399989     -4.1949089565     1.9084213517
C     -1.954119787     -4.1198634075     1.2107252081
C     -1.9012900562     -4.4635696133     -0.174406916
C     -3.8738868251     -3.1222953646     -0.6174546226
C     -2.8200933829     -3.8498946399     -1.0971843203
C     -3.3618464842     -1.0541825718     2.8406956501
C     -2.5900981456     -2.210781449     2.7200802961
C     -2.9615304405     -3.1888743037     1.6925856039
C     -4.0071682567     -2.8528047442     0.8035762963
C     -4.5365362716     0.6649119217     1.7716612133
C     -4.449607931     -0.7624459073     1.9495776017
C     -4.7232707647     -1.6208822814     0.9061333537
C     -4.3532989487     2.5460183649     0.2894244408
C     -4.8386021996     1.2307386239     0.5033392944
C     -1.4977401185     4.5062300768     1.0618932073
C     -2.6915167913     4.1337096017     0.5307190982
C     -3.5334768178     3.2084288983     1.248074101
C     -3.0016501559     2.5126495265     2.3753723167
C     -3.5628435146     1.255231901     2.6332199094
C     1.9842868988     4.4333521507     0.4196260343
C     -0.3859861841     4.772938374     0.1951733194
C     0.7778966454     4.6683874021     1.0086389452
C     -3.8888989646     2.0728696813     -2.0685267072
C     -2.7387697094     1.9801768344     -2.9222390727
C     -1.5853212828     2.7694721048     -2.7189722892
C     -3.8931571292     2.9727331579     -1.0267793855
C     -2.8012731206     3.8856398691     -0.884332473
C     -1.6305139719     3.7965418035     -1.6894096411
C     -0.3827086207     4.3088176293     -1.1539450104
C     0.8869931629     3.8878943633     -1.7338415467
C     2.0600675445     4.1168529617     -0.9818269564
C     -4.9516205244     -1.0750099887     -0.4287255262
C     -4.9743002217     0.3272958463     -0.6482593673
C     -4.4717095878     0.7599743418     -1.9053799487


