100

 C     -5.1317009276     1.1579606312     -0.6979494256
C     -1.9708803172     3.4119308309     -2.2751650989
C     -3.1694289681     2.7791342934     -1.9509715531
C     -3.7466069988     3.1588766493     -0.7062488763
C     -4.7281103503     2.3219685427     -0.0724880597
C     -1.2164515402     4.1627072432     -1.3065528907
C     -1.5910785141     4.1422952717     0.0473731378
C     -2.924813169     3.7391844679     0.3100170028
C     -0.5581011699     3.9804465202     1.0502919304
C     -0.9753957971     3.3296830553     2.2803494099
C     0.0138418621     2.8258465026     3.1087189726
C     0.8461349953     3.9915759949     0.6662840851
C     1.2053896238     4.0683938519     -0.7522700791
C     0.1569741402     4.1564703664     -1.6909338481
C     -5.2157909976     -0.0122570976     1.4651277415
C     -4.656099054     1.1643088478     2.0875724134
C     -5.4577530151     -0.0117063954     0.0875761035
C     -4.4734776135     2.3292432011     1.352991894
C     -3.3120666134     3.1425369853     1.5699558285
C     -3.6176022071     0.7402052684     2.9857082908
C     -2.4638641225     1.4977253032     3.1813434629
C     -2.3097983429     2.770565681     2.4721445641
C     -4.6803695288     -2.3271406652     -0.0758678608
C     -4.378967655     -2.3218602447     1.347816644
C     -5.1053511227     -1.1730127323     -0.7003905418
C     -4.579894692     -1.1655699334     2.0809128169
C     -3.5446807666     -0.7104898831     2.9622557493
C     -2.311839109     -1.4044352053     3.0841719707
C     -1.2912407412     0.7811150505     3.6446394703
C     -0.1451544949     1.5445352626     3.7956467264
C     -1.9125397164     -3.3986651953     -2.276856919
C     -3.1212143319     -2.7683510644     -1.9608150697
C     -3.7212596542     -3.1627602921     -0.7290531503
C     -2.9045863828     -3.7513648568     0.2877031129
C     -1.6324022124     -4.2475153766     0.0178107221
C     -1.25489831     -4.2652215586     -1.3552764547
C     1.0633465217     -4.5252996162     -0.752331766
C     0.1214724428     -4.3104815814     -1.7214347936
C     -1.1477911396     -0.6593493269     3.515850947
C     -2.1373058999     -2.6603367517     2.3798943118
C     -3.1972553902     -3.1019611312     1.5445203358
C     0.6974402323     -4.424532877     0.6609643032
C     -0.607322388     -4.1116336987     1.0463144162
C     0.1688806752     -1.249588619     3.4443809935
C     0.3460124375     -2.5351054166     2.7567671797
C     -0.7970327264     -3.1855025618     2.156971589
C     -3.360742952     -1.4337279799     -2.4910775127
C     -4.4314353125     -0.7119403077     -1.9104258287
C     -4.4518289535     0.7063827455     -1.9099843768
C     -0.8982057294     -2.7417712389     -3.0647493204
C     -1.0110591015     -1.3914033107     -3.4187916395
C     -2.2876758823     -0.7033636919     -3.1519771718
C     -2.3322269163     0.7337271263     -3.1805300245
C     -3.4086341435     1.4479058208     -2.4996880512
C     -1.1287271004     1.4614385534     -3.5555958608
C     -1.0474774838     2.8271510146     -3.1959156165
C     0.2155843712     3.4566274854     -2.9495697842
C     1.3682223213     2.8420375767     -3.3236154714
C     0.2290761721     -0.6701114513     -3.6486623542
C     0.126366342     0.7578785653     -3.8314628856
C     1.3262972101     1.4938705565     -3.8364020134
C     0.3718044486     -3.3378462386     -2.7550667116
C     1.5783212082     -2.6223195394     -2.811179515
C     1.5238363122     -1.2805480089     -3.3540090458
C     3.8549370578     -0.8782364791     -2.3900333971
C     2.7181458619     -0.4639008511     -3.2323305867
C     2.5907550467     0.8983175839     -3.5428245176
C     4.7037358318     0.1302027437     -1.8565696693
C     3.8006955819     -2.1477183809     -1.6910146281
C     2.6715673531     -3.0339749943     -1.9241889198
C     4.529219784     -2.2797530032     -0.4726746467
C     2.3740078588     -3.996683998     -0.9228125435
C     4.3717853039     1.5257882871     -2.0026633598
C     3.3838262289     1.8991249028     -2.8584792786
C     5.1841902744     1.2798541044     0.1294510681
C     4.5144444877     2.2056552213     -0.7360789712
C     4.9012878756     1.2957187673     1.4831259254
C     4.9198482735     -1.1683038215     1.5535321049
C     5.2235896864     -1.1818110806     0.1256669751
C     5.3278876488     0.0072754726     -0.5687727259
C     4.7520753854     0.0357525764     2.2099172331
C     2.9083814885     -3.8486098758     0.4040812921
C     4.0250793398     -2.2498477144     1.8334637989
C     3.9638417495     -3.0303192787     0.6222367367
C     2.0799763495     1.9438528812     3.5129429071
C     1.1233071274     0.9553780589     3.9430256334
C     1.3341466761     -0.4293279294     3.7181140805
C     3.3180897057     1.5711494949     3.1143190762
C     3.6804003674     0.1738090709     3.1449098047
C     2.6828690433     -0.832762125     3.3224735236
C     2.8623473869     -2.0947770825     2.643491804
C     1.6913801565     -2.9389928082     2.3764210793
C     1.8186903029     -3.9141299932     1.3558713428
C     2.5498557919     3.0209311792     -2.5409261927
C     2.4931438518     3.5488489292     -1.2218104793
C     3.5010241584     3.0946945783     -0.2723407507
C     3.1867304787     3.0971976467     1.1478645112
C     1.8499938587     3.5160154474     1.5949622977
C     1.3897871295     3.0090528163     2.836096204
C     3.9405737358     2.2316842358     1.9904867139


