100

 C     -4.9676147714     -0.4980875595     -0.1853906637
C     -4.6772863767     -1.6664500615     0.5499365545
C     -4.3682347247     1.8173582339     -1.7443765438
C     -4.3435278357     0.599496623     -2.3474735591
C     -4.7435088026     -0.5707085211     -1.6067324672
C     -3.3748059524     2.8001977312     -2.1090728224
C     -2.3040621474     2.4546318154     -2.9897866202
C     -1.1527080694     3.2361302658     -2.8672831286
C     -4.0702304826     -1.6659443884     -2.193030647
C     -3.7770875711     -2.8250687436     -1.449000237
C     -4.123003823     -2.8308236257     -0.0690968047
C     -2.6523568002     -3.57734231     -1.8561226463
C     -2.1485953234     1.0956684591     -3.4752171749
C     -3.2587550191     0.2375853091     -3.2556446252
C     -3.1034141767     -1.144223055     -3.1773072145
C     -0.8235137658     0.5148461631     -3.6383163001
C     -1.8327664261     -1.7467614434     -3.3660198901
C     -1.7020261763     -3.0526901036     -2.8532104098
C     -1.9191179475     -4.3470498113     -0.9307756707
C     -2.1022245028     -4.1662871083     0.4884928759
C     -3.2415419481     -3.456784187     0.8803421361
C     -3.2433381572     -2.6682947743     2.084640073
C     -2.0623553513     -2.5265786562     2.8681898596
C     -1.9880510425     -1.3609928676     3.6444269968
C     -0.5979852673     -4.4911334975     -1.4727023809
C     -0.911725013     -4.1282657358     1.3585567773
C     -0.8363224471     -3.2046523308     2.4804403274
C     0.4485252992     -4.7107174949     -0.6424943778
C     0.2964303281     -4.5657999402     0.807165575
C     0.1365027963     2.7363036221     -3.2362917189
C     0.3478753288     1.3692285898     -3.5163256121
C     -0.6471271192     -0.9217595132     -3.5528479053
C     0.668520091     -1.4858603899     -3.2783109979
C     0.7657505213     -2.8504946452     -2.7987871452
C     -0.4346138457     -3.5962645294     -2.6045239594
C     -4.1552351716     -1.5896639844     1.9027984101
C     -2.9600611941     -0.3127085251     3.5393969288
C     -3.9914301105     -0.3495668312     2.5637258799
C     -2.2784563128     0.915011977     3.8404355831
C     -2.6749822379     2.0837971024     3.2444869252
C     -0.882067795     0.649564396     4.0401057756
C     2.426749646     1.8595971024     2.813893214
C     3.6951662966     1.3153731938     2.5492697215
C     1.4293625155     0.9795527481     3.3840417993
C     0.1180748132     1.5288662895     3.601243152
C     -0.2919428759     2.7763095903     2.9502425094
C     -1.6754133267     3.0334716587     2.8176649801
C     0.4912467914     -1.3405659397     3.5341348744
C     -0.7097758406     -0.7684406577     3.9462060573
C     3.9284276677     -2.6309753223     1.4068621267
C     2.9016883881     -2.344996551     2.343106328
C     2.878870767     -1.0048387458     2.9156787965
C     1.633756775     -0.4541772355     3.3971749678
C     3.9224301063     -0.1061726728     2.6073684301
C     0.4463875466     -2.6480513893     2.8758554409
C     1.5547682048     -4.1426107242     1.3038817466
C     1.6675633264     -3.1366185291     2.291259521
C     -3.7726625215     2.0863578209     2.303586525
C     -4.3885633109     0.8814228998     1.8739581294
C     -4.8682874353     0.8064346841     0.4896597503
C     -3.5152961747     3.172258849     1.404789439
C     -3.9830301624     3.104333382     0.1127279797
C     -4.6937677834     1.9453139322     -0.3306597453
C     -0.9709142833     4.1344049974     -1.7669637718
C     -3.1541184949     3.6154853481     -0.9663351281
C     -1.8821118039     4.1947087561     -0.7013884522
C     -2.1990163401     3.7296473068     1.6867208209
C     0.0752588459     4.1573635062     0.9057658394
C     -1.3557354327     4.2044249224     0.6723858521
C     2.3237005379     4.1002518323     -0.1052390374
C     0.9524847154     4.3741045301     -0.2289847777
C     0.4319520491     4.2834555611     -1.5422004432
C     2.0137444042     3.0752763035     2.106398579
C     0.6059173751     3.4457826144     2.0484481002
C     2.8803373603     3.5811067916     1.1179023661
C     4.2348553065     2.9102891798     -0.6526053657
C     3.0918196415     3.5745910692     -1.1971492848
C     2.4129719038     3.0418253205     -2.3265132071
C     1.1154835643     3.5114355274     -2.5240947551
C     4.7243424362     1.7830287502     -1.2856974174
C     5.2647167463     0.7783662591     0.8940246532
C     4.5660178701     1.8651897067     1.5354364788
C     4.1261396715     2.944747269     0.7940752664
C     5.327939331     0.7326702176     -0.5083222517
C     4.9361481289     -1.6803624893     -0.4747075293
C     4.8736679735     -1.6412720719     0.9827518606
C     4.935782598     -0.4231586762     1.6284481658
C     5.0537636219     -0.511442087     -1.1897157535
C     2.4847237327     -4.1589422263     0.191905813
C     4.0400814949     -2.6955254073     -0.9367898832
C     3.6194974235     -3.4147318659     0.2348713749
C     2.7403673465     1.7089525912     -2.818326169
C     1.6785390528     0.8130243263     -3.2827729741
C     1.8395815491     -0.6117026271     -3.1614784391
C     3.9447274187     1.1586439301     -2.3579296747
C     4.1239501955     -0.2508589587     -2.2768389038
C     3.0831514356     -1.1500835831     -2.6180243832
C     3.1119108249     -2.4671006763     -1.9930412002
C     1.9378821992     -3.3022519559     -2.0595137314
C     1.7511055299     -4.2642440294     -1.0254475354


