100

 C     5.2860736967     -0.5525592367     -0.1542946731
C     2.7870932606     -3.7069622109     1.0610180886
C     3.8598408522     -2.8350863173     0.7870631067
C     4.2232527086     -2.6982980386     -0.5834236672
C     4.9167889052     -1.531829906     -1.0556980105
C     0.7605687533     -4.6751203629     0.5371048009
C     2.047188949     -4.3226034522     0.012314588
C     2.1664685901     -3.8472784546     -1.3281913972
C     3.2978334298     -3.0845980458     -1.6069005603
C     -0.3190666078     -4.7242962598     -0.3049677476
C     -0.6171314251     -3.6094284659     2.2901693266
C     0.6182046296     -4.1212363953     1.8509576227
C     -1.6237276275     -4.3942576366     0.1807283172
C     -1.8100574622     -3.8245868166     1.4589980744
C     4.7277923943     1.2001308483     -1.7853311877
C     4.2365724188     0.173830134     -2.6880249861
C     5.2038323464     0.8542898655     -0.5329419805
C     4.3482546269     -1.163739271     -2.3429226421
C     3.2746086532     -2.0511497635     -2.6230409897
C     2.0356140588     -1.5940109294     -3.1591365028
C     0.9655944243     -3.622780818     -2.1281903947
C     -0.2043200598     -4.228953506     -1.667229358
C     2.3964075655     3.9395816913     -0.9179264464
C     3.5445860588     3.1507170366     -0.7819668788
C     3.8720278439     2.3471006099     -1.9105588537
C     2.8634585976     2.022247242     -2.872835099
C     0.5696221287     0.4343084245     -3.5173742517
C     0.4191099222     1.8763689129     -3.239060676
C     1.5990582576     2.6307206934     -2.8633592773
C     1.4803943803     3.753120202     -2.0099750465
C     -3.0318697319     -0.6271546809     -3.271810844
C     -1.8981429513     0.2040739148     -3.4589481754
C     -0.8643078121     2.4306484225     -2.9371568418
C     0.8600313445     -2.4114470465     -2.9621089529
C     1.892538516     -0.180062579     -3.4656623144
C     3.0267561816     0.64938777     -3.2736706635
C     -1.4822769617     -3.7425888167     -2.0413050366
C     -1.6031369736     -2.6122325606     -2.8838106042
C     -0.4241577373     -1.8543762656     -3.2554757685
C     -0.5753728562     -0.4097686305     -3.519853378
C     -2.8675515388     -2.0037130073     -2.8843001558
C     3.9358913057     2.7250699295     0.5575376631
C     4.8082020212     1.6145890571     0.6398527763
C     4.7087063369     0.6758639926     1.7226536338
C     3.0145040026     2.9907995715     1.6743224835
C     2.9968992462     2.0829095412     2.7463118176
C     3.8120397665     0.9068519674     2.7458437057
C     0.3216973841     4.7184853495     -0.2614982666
C     1.6276097596     4.3839205009     0.2176988423
C     1.8172409374     3.8022845694     1.4900814638
C     -0.7557537778     4.6614005537     0.5828699329
C     -0.6099946578     4.0952141815     1.8910954187
C     0.6264691532     3.5793234204     2.3222843532
C     -2.0437341266     4.3138067743     0.058128987
C     -3.2985835087     3.0910285782     -1.5693842198
C     -2.1664907573     3.8510749394     -1.2864634051
C     -2.0404060939     1.615082059     -3.1387983718
C     -0.9676951477     3.6341049127     -2.0916406765
C     0.2034165435     4.2359402066     -1.6280450134
C     -3.2780029906     2.0671584497     -2.5952325103
C     4.1124687653     -1.7387616503     1.7100840866
C     3.1292876967     -1.4781713643     2.77454569
C     4.9060279867     -0.6658932225     1.2405456391
C     3.0527358164     -0.1806110785     3.2898736109
C     1.8057729774     0.3691484955     3.7591070744
C     0.6280901852     -0.3909923264     3.8367283566
C     0.6913585927     -1.7897697209     3.4652967416
C     1.9425098469     -2.3211511193     2.9362284239
C     1.8706099817     -3.4917259138     2.1693562294
C     -1.7573221109     -1.7926194288     3.4342350158
C     -0.5508818603     -2.4795488577     3.1933867613
C     0.5625441015     2.4410172182     3.2150296256
C     1.7695952163     1.7518718114     3.4462970058
C     -1.8615790363     3.4627280752     2.2068144517
C     -1.93150748     2.2850088069     2.9628546407
C     -0.6789964662     1.748702389     3.4836716316
C     -0.614783725     0.34650208     3.8417976375
C     -1.7926720098     -0.4128913603     3.7600943515
C     -4.1046420418     1.7141221033     1.7369253538
C     -3.1187107769     1.4435691753     2.7963457205
C     -3.0408397114     0.1412304143     3.2992737267
C     -4.8994257718     0.6456958464     1.2593973109
C     -4.9161244357     1.5331366646     -1.0285842202
C     -4.2213547959     2.6951327992     -0.5471849797
C     -3.8543912916     2.8190619228     0.8235797428
C     -2.7809278718     3.6883432087     1.1029222159
C     -5.2830843812     0.5454475216     -0.1354544411
C     -4.729051371     -1.1918563802     -1.7843035516
C     -4.2401587921     -0.1571262121     -2.6785973857
C     -4.3509308275     1.1771462264     -2.3206742477
C     -5.2018413682     -0.857786736     -0.5274963474
C     -2.3954599142     -3.9392959095     -0.9486829165
C     -3.543272594     -3.1517565203     -0.8023535256
C     -3.873627029     -2.3375912387     -1.9225040564
C     -3.801564999     -0.9410905052     2.7470360481
C     -2.9864400185     -2.1170926676     2.7343605076
C     -3.006830124     -3.0148834005     1.6539466788
C     -4.7008735047     -0.7005240778     1.7283831397
C     -4.8031833051     -1.629050372     0.6370843821
C     -3.9311026985     -2.7386995445     0.5420946933


