100

 C     -2.9445960586     -2.0290279055     -2.783864548
C     -3.6801424356     -0.8449995668     -2.6494657256
C     -4.6985298697     -0.858695587     -1.6527453944
C     -5.1887711108     0.373585523     -1.0846014523
C     -4.6648817043     1.5682720071     -1.5323120732
C     -1.6279228109     -2.0462911785     -3.3512197569
C     -0.9119699303     -0.8629680181     -3.5999792727
C     -1.6225483311     0.4030212819     -3.4319943203
C     -3.0279511804     0.3976652182     -3.0381479567
C     -3.5998756952     1.5859686651     -2.5267509994
C     0.6053934908     1.5458751485     -3.3859775515
C     -0.8482751513     1.602403365     -3.2854174771
C     -1.4465637427     2.7646425555     -2.6623867011
C     -2.7921120105     2.7169008528     -2.2752132782
C     1.3366432039     2.6839232121     -3.0219717966
C     2.7181950655     0.2366385173     -3.0727128855
C     2.5688507295     -2.2112548927     -2.9624949003
C     1.2010757123     -2.2074328551     -3.3096393535
C     0.5562824282     -0.9347392411     -3.5856374161
C     1.3166810394     0.278173929     -3.4729780649
C     3.2992200274     -1.0156450798     -2.8265240694
C     -5.1051579663     1.1537433227     1.2473443952
C     -4.5695379327     2.4106680448     0.7802007295
C     -5.4485426948     0.1635156219     0.3294480797
C     -4.4001539229     2.6357451504     -0.5895909913
C     -3.26042163     3.3569437704     -1.0487227959
C     -3.5178673333     2.8063146092     1.6777179739
C     -2.4168974282     3.5412156442     1.2483975744
C     -2.321253926     3.8935313198     -0.1620368391
C     0.7232078267     3.8037688581     -2.3405719347
C     -0.6344743578     3.7710066888     -2.014932604
C     -1.0509131786     4.2872881932     -0.7185134845
C     -0.0608952437     4.6765260524     0.1913437654
C     -4.517138432     -1.5806281677     1.7892374104
C     -4.1053898808     -0.5451129838     2.7216491352
C     -5.1392585274     -1.2257026925     0.6040050153
C     -4.3734547243     0.7918151935     2.4507395395
C     -3.3547649977     1.7722598925     2.6840867678
C     -2.0695260127     1.4177230774     3.1680076658
C     -1.1928298375     3.4326731948     2.0251483333
C     -0.1058111261     4.1612343761     1.5610401179
C     0.173011644     -4.6013534151     -0.740589011
C     -1.1999486909     -4.2958117652     -0.6468040003
C     -4.7037119995     -1.8577005713     -0.6221743301
C     -3.506474986     -2.6134592263     1.8034121013
C     -3.1010017189     -3.308531945     0.6436166191
C     -3.7458370897     -2.9099902252     -0.6137607091
C     -1.7836078157     -3.9162972054     0.6375292619
C     -2.5340470374     -2.2387187625     2.7751086776
C     -1.2329737738     -2.7111412787     2.7385137464
C     -0.8813067366     -3.7003289712     1.7430648879
C     1.4635780139     -3.4616696626     2.4967561731
C     0.5197743622     -4.0754051961     1.639369605
C     1.0335162298     -4.5825093711     0.4238162976
C     -0.9519375939     2.3011211603     2.9021680609
C     -1.812716656     0.0303971119     3.4881282114
C     -2.8427645862     -0.9144020095     3.2715546593
C     1.0822057114     -2.3273752144     3.3277974997
C     -0.2218594555     -1.8693999278     3.3663285814
C     0.4003377105     1.8728119048     3.163692123
C     0.6510848037     0.4747818946     3.5314136543
C     -0.4527366857     -0.4486335168     3.5827025025
C     -3.0180452139     -3.0717359228     -1.808135905
C     -1.7872044726     -3.7948478712     -1.8350768732
C     2.3161720409     -4.1021531789     -1.4227875902
C     0.9558682835     -4.2296657606     -1.8703075559
C     0.4201652606     -3.3437826185     -2.8486670066
C     -0.9695541573     -3.2306507224     -2.8611390135
C     3.1208196345     -3.1607972917     -2.0044825007
C     4.1445433486     -2.4955549004     -1.2293193986
C     4.7938660441     -1.6343272294     0.9215187313
C     4.2586191834     -2.7172404565     0.1769190282
C     2.3756543333     -4.3317022775     0.0117342255
C     2.8231727369     -3.2864881492     2.1293701043
C     3.2908061625     -3.6157989927     0.8228933374
C     4.9243766257     0.6519475781     1.3024307888
C     5.1230658679     -0.391251176     0.3143974511
C     4.8005629829     -0.1142325997     -1.0473031138
C     4.3207548369     -1.2027752944     -1.7934885499
C     4.6753073145     1.9324740319     0.9056680524
C     3.2912096028     -2.0884913317     2.8008511098
C     4.2372334623     0.1047667927     2.4311525636
C     4.2767938361     -1.3216670996     2.2503901695
C     2.1076520655     4.3800895237     0.9541887543
C     1.218654512     3.8728195127     1.977884123
C     1.512510611     2.6954612876     2.7184511359
C     3.330889271     3.7912444388     0.7657180941
C     3.7520979797     2.7413880232     1.6522027465
C     2.8596431553     2.1431537987     2.5881917226
C     3.1079942036     0.7722674383     2.9860951524
C     2.0059884016     -0.040337599     3.4804038212
C     2.183377476     -1.4489613263     3.465510808
C     2.9418847339     3.6866814955     -1.6571063352
C     1.6958879018     4.3882868506     -1.4689823457
C     1.3048136855     4.7813213754     -0.1842686785
C     3.7934290834     3.4708210779     -0.5805344431
C     4.409621001     1.2308820025     -1.4580958201
C     3.3927282044     1.3966078889     -2.5027132651
C     2.7200343698     2.6208860566     -2.5948115472
C     4.5543216418     2.2683437008     -0.5090494495


