100

 C     2.5194114738     -2.7986821118     2.5157103934
C     2.6507746429     -1.4224480918     2.81614203
C     3.7685663325     -0.712886399     2.1864474457
C     3.768383526     0.7273717567     2.1820846144
C     4.5501830134     1.3908415769     1.1906557588
C     4.1395947522     2.6715266415     0.681881584
C     2.6504118358     1.4404514993     2.8074707946
C     2.5187005157     2.8148065764     2.4987074078
C     3.2118825572     3.3901500602     1.360687954
C     1.2935808251     -3.4922418798     2.6472397616
C     0.2424150715     1.4756925845     3.5015574226
C     -0.9951023319     -0.7175023209     3.7252138567
C     0.1408601085     -2.8605391039     3.1288535157
C     0.2427856417     -1.4540943529     3.5104298563
C     1.4787050131     -0.7263181036     3.32327257
C     1.478518623     0.7471088919     3.3188108914
C     -2.2243343343     -1.3824590398     3.5083751231
C     -2.2945427891     -2.6869909887     2.8984951878
C     -1.1398020288     -3.4524314956     2.7283758478
C     -1.2029217002     -4.4276905745     1.6914358057
C     0.0134425495     4.8638152477     1.0173976794
C     2.3066177132     4.2347623467     0.6438680721
C     1.2156955606     4.4757723434     1.5317243893
C     -1.2040439287     4.4378495041     1.6645837268
C     -2.2952243567     2.7042162024     2.8821651036
C     -1.1406779511     3.4689051005     2.7074117385
C     -0.9952868196     0.74010122     3.7207993696
C     0.140133805     2.8797739077     3.1114671583
C     1.2926944426     3.5088391816     2.6260337112
C     -2.2246866684     1.4034206889     3.499936875
C     -0.1851870698     4.8882263172     -0.4067202549
C     0.7754942579     4.31084883     -1.2810993237
C     2.0962085739     4.0439229132     -0.7513418047
C     2.9846339722     3.134375824     -1.4600610044
C     4.117364673     2.6367047491     -0.7655320828
C     4.7801961196     1.4236351219     -1.1371799654
C     2.4583644324     2.3304030089     -2.5632359659
C     3.1580307957     1.1645725732     -2.929347963
C     4.3394637031     0.7178672508     -2.2449585522
C     -1.5952793252     4.6993029775     -0.5929855848
C     0.2813185068     3.5270495075     -2.416098672
C     1.0605406539     2.4204185441     -2.9442541477
C     -2.0537704845     4.0871141004     -1.725445168
C     -1.1040109148     3.5204837258     -2.6601320962
C     -3.3725177211     2.7085995498     1.9441199107
C     -3.2925577315     3.4449177291     0.74768166
C     -2.2293089515     4.3911618647     0.6770691677
C     5.11645823     -0.6875816675     0.0819621525
C     4.7805574619     -1.4289878383     -1.1285398322
C     5.116284169     0.6896615628     0.0777907293
C     4.3396471905     -0.7300554614     -2.2405736188
C     3.1583286171     -1.1811982117     -2.922243483
C     0.2822142014     -3.5412512747     -2.3946890405
C     -1.1031164823     -3.5365146369     -2.6387564599
C     1.0611565791     -2.4376432608     -2.9295397882
C     2.4589569102     -2.3449663945     -2.5490740298
C     2.9854294363     -3.1421085089     -1.44104995
C     4.1180334729     -2.6399516429     -0.7495494667
C     -1.7494579241     2.4171424334     -3.2993331729
C     -1.0447038327     1.2543594223     -3.6582090299
C     0.3897583665     1.266224313     -3.5128501849
C     1.0851570183     -0.0105942796     -3.5922695983
C     2.4573648217     -0.009773492     -3.3787853175
C     -1.7716391904     -0.0113789633     -3.731781115
C     -1.0443830759     -1.2764639988     -3.6505427916
C     0.3900822132     -1.2870845099     -3.5051160558
C     -1.748842721     -2.4372299762     -3.2846294822
C     3.2127399056     -3.3807326677     1.3811960897
C     4.5505347524     -1.3821514701     1.1990546955
C     4.1402713201     -2.6659992109     0.6980489101
C     2.0972336967     -4.047570785     -0.7268333321
C     0.7765873577     -4.3180345882     -1.254962807
C     2.3076897255     -4.2299013367     0.66950656
C     1.2168275221     -4.4658049385     1.5588074104
C     0.0146729824     -4.8572609422     1.0468417916
C     -0.1839487357     -4.8903472108     -0.3771014718
C     -3.7447246122     -1.1523660995     -2.7461904718
C     -3.0945350633     -2.3579776153     -2.7621269991
C     -3.2321758627     -3.258234985     -1.6688311066
C     -2.0527331708     -4.0977127654     -1.7006540371
C     -1.5940882092     -4.7029142067     -0.5645074739
C     -3.0951300272     2.3407149851     -2.7763584862
C     -3.7450140111     1.1350574249     -2.7531187614
C     -3.1381839256     -0.0104453018     -3.3663468373
C     -4.4214337874     1.4881863872     -0.4032089644
C     -3.8202565402     2.8309627638     -0.4669609687
C     -3.2329994448     3.2475441951     -1.688535979
C     -4.4633609404     0.7220836421     -1.5792665023
C     -4.0136099722     -1.3981234188     2.0146620184
C     -3.3873270205     -0.6767693725     3.0785299108
C     -3.3875005843     0.6948458078     3.0743756272
C     -4.4761228939     -0.7383026567     0.8616014058
C     -4.4763096537     0.7426720044     0.8571154789
C     -4.0139652125     1.409582976     2.006157826
C     -2.2281975601     -4.3872458944     0.7036577734
C     -3.8195392623     -2.8344092498     -0.4498014629
C     -3.2916859381     -3.4408607303     0.7685375034
C     -3.371833861     -2.6973292373     1.9604935929
C     -4.4631775338     -0.7324703905     -1.5748611606
C     -4.4210574856     -1.4914241823     -0.3941840345


