100

 C     4.7608311274     -1.257602493     -0.7596317835
C     4.3245630751     -2.547743158     -0.3694350611
C     4.5164506815     1.5351258055     -1.4282574678
C     4.1624506942     0.5767243926     -2.3438532721
C     4.3276650234     -0.8253953854     -2.0456253272
C     3.769632006     2.7600880034     -1.3648187012
C     3.3085366515     -1.5203701392     -2.7556593206
C     2.8045152666     -2.7552296154     -2.3284552296
C     3.4388880299     -3.3151568521     -1.1778292592
C     2.6726845035     -4.162233816     -0.295305851
C     1.448689356     -4.6058127973     -0.6824851717
C     2.4394016263     -0.5461879322     -3.3865752259
C     1.0693402511     -0.7646128497     -3.5564544655
C     0.5231261359     -2.0906032868     -3.2321056891
C     1.4146414631     -3.0802731015     -2.6456693337
C     0.8362983401     -4.1407590821     -1.9186386844
C     -1.7682550309     -1.1286231477     -3.4450814068
C     -0.9019307475     -2.2573404518     -3.1242870728
C     -1.4605760149     -3.3704063307     -2.3667904555
C     -0.5631253941     -4.2705710366     -1.764936797
C     -3.1246707951     -1.1974846269     -3.0640125803
C     -1.1974728942     0.1948762488     -3.7256026876
C     0.2252445281     0.4094746001     -3.6633175972
C     -2.0313641654     1.3251899     -3.628619517
C     1.8233497923     4.4779835375     -0.3292817483
C     1.6131010671     3.9186881392     -1.6204373155
C     2.5880935527     2.9680218289     -2.1263261893
C     2.150339283     1.8901012831     -3.0141076576
C     2.9757766473     0.7565173452     -3.1403925405
C     0.2582135773     3.8933699626     -2.1403089691
C     -0.1439293968     2.8285513211     -3.0667782842
C     0.7588268869     1.7343078327     -3.3699449481
C     -1.5132398113     2.6107739775     -3.2690677457
C     -1.9756457502     -4.4776289214     0.225316098
C     0.4108847561     -4.7807454707     0.2973165857
C     -0.8117950102     -4.7874834499     -0.4251688916
C     -3.0359723328     -3.8351254957     -0.4867096288
C     -3.6136522129     -2.1994265909     -2.1536613727
C     -2.7946017172     -3.2812303111     -1.7717413599
C     -1.941024657     -3.9753485618     1.5713796872
C     -0.7172285412     -3.6631902994     2.1970402895
C     0.5077259615     -4.1549273714     1.5774508653
C     1.7861480529     -3.5842282203     1.9514256958
C     2.8943991627     -3.7613873425     1.0698928113
C     3.9804853292     -2.8370690844     1.0219787751
C     1.8121993344     -2.4516056708     2.8610276476
C     2.9728341045     -1.6496507391     2.8882020819
C     4.051113524     -1.8312269654     1.9581229985
C     0.6077498579     -0.4697078455     3.7870109527
C     -0.6053258214     0.1708679992     4.0326868496
C     -1.9331765001     -1.781244809     3.3478316263
C     -0.6921340696     -2.4989969793     3.0957240966
C     0.5740454223     -1.8630950401     3.3640309515
C     -1.8418722081     -0.4759862583     3.8755770565
C     -3.1353043814     -3.1768271886     1.733648863
C     -4.12392492     -1.0675731966     2.3391801582
C     -3.1694795185     -2.1015695731     2.6279623949
C     -4.5389479889     -1.5863777741     -1.2561244177
C     -4.5888865729     -1.9876977982     0.1039724474
C     -3.8320054195     -3.1260491969     0.4777341207
C     -4.7725914528     -0.9783083375     1.0848908223
C     4.918063457     1.1328890846     -0.0855717542
C     4.9847481679     -0.2390953323     0.2749270858
C     4.606359878     -0.5427300349     1.6114585668
C     3.9623260844     0.4282001965     2.4360170171
C     3.8065178535     1.7714437991     2.0444922425
C     4.416681779     2.1249015947     0.8053709106
C     2.8536999953     3.9733092076     0.5323140653
C     3.8364910333     3.1811095068     0.0080163141
C     1.7560306282     0.3948734412     3.5588600962
C     2.9368634341     -0.2376070459     3.1950283705
C     -0.7802675648     1.5975568437     3.7664093272
C     0.2750472656     2.403426584     3.3053697168
C     1.6010493031     1.8251564709     3.2654384437
C     2.6361433253     2.4997644441     2.5253466625
C     2.2742738524     3.6862353306     1.8323603785
C     -1.473886502     3.6965132598     2.0093534085
C     -0.1006056402     3.5556668158     2.5109743436
C     0.9484714157     4.197174764     1.8215455049
C     -1.6746572096     4.3766366976     0.7812543578
C     -4.3129437853     1.2174835655     1.7502125006
C     -3.8958765061     0.2883484135     2.776335041
C     -2.8093418006     0.5646066745     3.5486476283
C     -3.6007409583     2.4336957362     1.5167231077
C     -2.5004253717     2.7690441271     2.4089473879
C     -2.1293732602     1.8232271441     3.4134890519
C     -4.6751237274     -0.1936090285     -1.6278078835
C     -4.1640597088     2.1489138436     -0.933024104
C     -4.7570351719     0.8436747288     -0.6546782639
C     -4.8590232829     0.438871564     0.7049690874
C     -2.693365668     3.9770740485     -0.1352730636
C     -3.6299807641     2.9587058345     0.1686945148
C     -2.1340018095     4.1143554573     -1.4653078456
C     -2.5217254464     3.2552026288     -2.4532940369
C     -3.6036354337     2.3403070413     -2.2250001819
C     -3.3635546861     1.2260226127     -3.0898510121
C     -3.892645316     -0.0095421385     -2.8058904221
C     0.7182904132     4.7956229765     0.5234992007
C     -0.5441264724     4.8392470225     0.0076371428
C     -0.7594435469     4.5157945365     -1.3746777561


