100

 C     -4.4994802853     -1.3684245611     -1.5228461948
C     -3.8841280126     -2.5751816009     -1.3986538798
C     -3.6873540453     -3.1487088629     -0.1000843076
C     -2.6391742421     -4.1071793459     -0.2575820734
C     -1.8831320801     -4.4556603472     0.8295133304
C     -4.0669945295     -0.4420091931     -2.5424967545
C     1.516880678     -4.4134089149     -0.5857625086
C     -0.4891370855     -4.7831108806     0.6523956233
C     0.1288372354     -4.6092543085     -0.6152552257
C     -2.0148822399     -3.9110103979     -1.5598654413
C     0.0145004672     -3.1498457213     -2.694565425
C     -0.6333026011     -4.0334663786     -1.7329200834
C     2.1226598175     -2.0557345244     -3.3628705206
C     1.4666597379     -3.1119287859     -2.7012046273
C     2.2028011624     -3.7652585546     -1.6632703666
C     -2.5856424105     1.816124811     -3.2288907694
C     -2.0528108622     0.5453877737     -3.5472141149
C     -2.828294032     -0.6395747472     -3.2064305742
C     -2.1481964053     -1.9271596908     -3.0465423168
C     -2.7662939215     -2.9129668239     -2.2433280082
C     -0.630598653     0.4424439988     -3.7739803326
C     -0.019031618     -0.878106005     -3.7931008889
C     -0.7335862564     -2.0518113828     -3.288939362
C     1.3764412305     -0.9497691186     -3.883974275
C     2.2215013312     -4.1315892604     0.6273195986
C     1.5358774219     -3.9690073524     1.8508627051
C     0.1952074591     -4.4316673581     1.8606342251
C     -0.7917047084     -3.8339358988     2.7356352847
C     -0.4133105494     -2.8333329235     3.5834455459
C     3.3631487382     -3.3449645583     0.298926038
C     4.5900138333     -1.2857381329     0.520368017
C     3.7951810997     -2.2952272261     1.1388302522
C     3.0257612344     -1.979136046     2.3517113784
C     1.9432825268     -2.8691204839     2.7290196791
C     0.96192846     -2.3784855288     3.6228888753
C     3.3990359862     -1.5591736927     -2.9377245256
C     4.0105503503     -2.0694001775     -1.7549166392
C     3.395360259     -3.1947872729     -1.1417058476
C     4.7164657949     -1.1790261993     -0.9141152515
C     -4.2981627572     1.384912243     1.4734252244
C     -4.008882074     0.0516301608     1.8580758147
C     -2.0697413813     -3.7661455762     2.0771625208
C     -1.2857894561     -1.7064979058     3.7830243218
C     -2.4902949938     -1.535751907     3.059449518
C     -2.9128979578     -2.6268307584     2.1785733371
C     -2.9625724286     -0.1799962357     2.8536935441
C     -0.4517754396     -0.6047415362     4.1219040246
C     -0.8469897321     0.7111905192     3.9094585961
C     -2.1639256404     0.9340108079     3.3290815741
C     -1.407682126     3.2336101079     2.8222056989
C     -2.4363514957     2.2625122108     2.8264742481
C     -3.4714794771     2.4677447579     1.8998447412
C     2.535904733     2.1803243516     3.1600177217
C     1.6131819707     1.2810554075     3.7381263372
C     0.2194415213     1.7027677046     3.8556137145
C     -0.1288462803     2.9903941634     3.3942521371
C     4.669364943     0.0138375654     1.0609729273
C     3.9237493453     0.3658311008     2.2220957528
C     3.0596952106     -0.622458386     2.8646093788
C     1.954680618     -0.1264412279     3.6668032458
C     0.9366609239     -1.0241850466     4.0160405471
C     3.6459453249     1.7331298558     2.399682523
C     -4.8943280605     -0.6419967745     -0.3438266843
C     -5.0163086375     0.7282189283     -0.7516854121
C     -4.787365443     1.729302961     0.1581600853
C     -3.8062716292     -2.344280578     1.0693956173
C     -4.3932610964     -1.0192084619     0.9339969984
C     -4.1353649719     2.9598631411     -0.2608770128
C     -4.5128633631     0.8533183208     -2.1193253131
C     -3.806628495     1.9773978533     -2.4884923887
C     -3.6394243469     3.0824079555     -1.562172557
C     -1.2527497143     4.1507365576     1.7077738423
C     -2.1347099426     4.1195542576     0.6080294834
C     -3.3576785725     3.4395905411     0.8239253496
C     0.1218629133     4.4123021483     1.5375396602
C     0.7389855919     4.458163346     0.2607690914
C     -0.1191245833     4.2436067991     -0.8982141933
C     -1.5554563004     4.1833484496     -0.7235342279
C     -2.3363187659     3.6364836496     -1.7763704604
C     1.8480777143     3.4672674184     -2.1504416959
C     0.4627070608     3.6454151216     -2.0921987996
C     2.8505295417     3.6860880512     1.3728410747
C     2.1047824511     3.4300044948     2.5842711953
C     0.8061312377     3.8113178845     2.6840977817
C     2.7186958798     3.7510974272     -1.0280564887
C     2.1688092773     4.1584699859     0.1994173075
C     4.879519535     0.9483082267     -0.0278014468
C     3.8311251934     2.8675963492     -1.1177397896
C     4.3855120297     2.2763722405     0.0487747022
C     3.8530732906     2.6985560051     1.2967980337
C     3.4604592234     -0.1594216568     -3.2395504658
C     3.6772124325     2.0706416533     -2.3239316422
C     4.177924268     0.7470102665     -2.400358284
C     4.8465543398     0.2111349892     -1.2455872101
C     -1.7189365295     2.8902809724     -2.8441872535
C     -0.3405773723     2.8000997151     -2.9706829748
C     0.2105204086     1.6155871079     -3.606690214
C     2.4431968325     2.4434972038     -2.9472635974
C     1.6407103145     1.4838462309     -3.6298053185
C     2.2102046518     0.2143845158     -3.8321444803


