100

 C     -3.8941867886     -0.7523264007     2.4618510957
C     -3.9523319773     0.6497142197     2.341852278
C     -4.7191255936     1.1556393601     1.2565831165
C     -4.4032252995     2.4392676957     0.689979813
C     -3.5010487094     3.2522126301     1.3182682183
C     -2.7588839234     -1.3966070333     3.0618994203
C     -1.5973801828     -0.6858711026     3.446492179
C     -1.6428722731     0.7734967577     3.3950894445
C     -2.8528292768     1.426665658     2.9003070556
C     -2.7578075825     2.7671537748     2.4764104734
C     0.8470130824     0.7767381445     3.6119134891
C     -0.4098131347     1.5071013497     3.4742628923
C     -0.3631005022     2.9004956688     3.0428498419
C     -1.5387025525     3.4796399073     2.5374889628
C     2.0522937219     1.4778316536     3.4093319932
C     2.1658971832     -1.3156609839     3.1988331502
C     0.9249488161     -3.3947021804     2.7620330309
C     -0.314898787     -2.8163622064     3.0816572112
C     -0.3333548404     -1.412585368     3.4857607815
C     0.9017170958     -0.6744908693     3.5553517429
C     2.135064469     -2.6592911179     2.8019978155
C     -0.3044667554     4.7333232842     0.8332243475
C     -2.6221831341     4.0857515246     0.5466747243
C     -1.4987213511     4.3770638873     1.3884170738
C     0.9161012292     4.3954062914     1.5028587295
C     2.0760745509     2.8081690757     2.8669114188
C     0.8914668002     3.5067181965     2.6185148067
C     -0.111180395     4.6114760423     -0.5906077894
C     -1.1219733866     4.0805983099     -1.4139032071
C     -2.4692137591     3.8953640983     -0.8529801501
C     -3.4147770739     2.9979883959     -1.5059237776
C     -4.4250660102     2.3522265199     -0.7439081159
C     -2.9844065273     2.3198042864     -2.6846341109
C     1.2750237604     4.3160375549     -0.7887164094
C     1.7249274083     3.4865224862     -1.8330520694
C     0.7171892267     2.9186645793     -2.705609983
C     -0.6747361044     3.2615307118     -2.5257681331
C     -1.6382863568     2.426925494     -3.1378865361
C     2.3499181558     1.226341018     -3.3837708855
C     1.0417516896     1.6861182572     -3.4108811934
C     4.7195296904     1.9103673979     -0.1563455249
C     3.7626717319     2.9184071409     -0.4183571339
C     3.0492937669     2.8859723634     -1.6987920719
C     3.383521241     1.8686624627     -2.6082505182
C     1.9281582413     4.2775001675     0.5063944849
C     3.218829387     2.929325349     2.0102941877
C     3.1004905695     3.5282882218     0.7276468388
C     -3.459024048     1.0039892045     -3.0137798053
C     -4.3980549507     0.3230445969     -2.1998973664
C     -4.8816124387     1.020652335     -1.0564180133
C     -4.313625065     -1.0967356578     -2.14510411
C     -2.3824476298     0.2825910503     -3.646386782
C     -2.1713799435     -1.0990360722     -3.4272021279
C     -3.2226664548     -1.7927017923     -2.7752815247
C     -1.6482393853     -3.5398580222     -2.0009204916
C     -2.9554218617     -2.9798901952     -2.0426102543
C     -1.3755866138     -4.3756009009     -0.8967968666
C     0.0274224177     0.7129559945     -3.7591681127
C     -1.2829148927     1.1667075922     -3.7448079353
C     0.8140910875     -3.2330058989     -2.3208567979
C     2.6619845401     -0.1767402071     -3.520306837
C     1.6399636244     -1.1616183173     -3.4696527348
C     0.2817538198     -0.7250131954     -3.661318348
C     -0.8023735412     -1.6188956194     -3.3775464456
C     -0.5359345759     -2.8836451072     -2.6822842825
C     -4.6518593682     -1.8201998994     -0.9565245321
C     -4.9477477212     -1.1160192971     0.2471899228
C     -5.1065271511     0.3043913133     0.1732282255
C     -4.4474563818     -1.6273561047     1.4802884791
C     -3.8381749666     -3.005363413     -0.9160069114
C     -2.2087968012     -4.3098295341     0.2987675263
C     -3.4029432442     -3.5589392991     0.3226108396
C     -3.697213569     -2.8571564705     1.5248921298
C     -2.7081913071     -2.7395037015     2.5483827264
C     -1.3507273403     -4.3838586528     1.4369774829
C     -1.4992275612     -3.4488434681     2.5061234964
C     -0.04695443     -4.7240068093     0.9597284681
C     3.3658844296     -3.3085673322     -0.9891842938
C     2.3057579045     -4.0343876139     -0.4366026738
C     2.2810946002     -4.1038147924     0.9904358978
C     1.0548784517     -4.3540907009     1.6757610216
C     3.9337977298     -0.3805203494     -2.915146998
C     4.2092735725     -1.5792696209     -2.2783527963
C     3.2052074776     -2.5990994747     -2.2343780344
C     1.914283173     -2.4207554733     -2.8070720042
C     1.0614434562     -4.131467426     -1.1889252755
C     -0.0459204359     -4.6397109046     -0.4955477207
C     5.2543762194     -0.3675214237     -0.4071185143
C     5.0356795409     0.8889970244     -1.1141921582
C     4.3817348814     0.8795640658     -2.3351422812
C     4.8869753268     -1.5633675774     -0.9924238072
C     4.0056335052     1.7479201823     2.1846193609
C     4.9970128052     -0.1268090514     0.9989836924
C     4.7938079336     1.2863030234     1.1537490923
C     3.0209222517     -3.160227616     1.7639793273
C     4.3120778395     -2.5968109117     -0.1798459239
C     4.0318539814     -2.3652617109     1.1994616997
C     4.2778548381     -1.0599580216     1.7862739113
C     3.3381784429     -0.5518305603     2.7974003705
C     3.2761282882     0.8261891397     3.0080560819


