100

 C     0.1076791492     -3.5883908599     -2.6026352495
C     0.9747999461     -2.5438640536     -2.9516881185
C     2.3538383993     -2.6406925821     -2.480963324
C     3.2287379653     -1.4922345993     -2.5763147291
C     4.3943464109     -1.4665431796     -1.7558874185
C     5.0273616728     -0.2428985414     -1.3735319111
C     2.6963078432     -0.2346244006     -3.0843234362
C     3.4699697091     0.9190377013     -2.84502997
C     4.6104639765     0.9301979409     -1.964412234
C     -1.3124137924     -3.4227290734     -2.5844381383
C     0.3938535589     -1.2402220754     -3.3373185091
C     1.2523686127     -0.0858137248     -3.3783184716
C     -3.2349418945     -2.0156516565     -2.5672218397
C     -1.9078682902     -2.2157936359     -2.9991390424
C     -1.0461214819     -1.0725349107     -3.3550569287
C     5.1332729231     0.865472604     0.8125821982
C     4.7683089473     2.1167414868     0.1818495961
C     5.3131985245     -0.2834081701     0.0536172654
C     4.5474821559     2.1507906189     -1.1851221608
C     3.4821511484     2.9577237439     -1.6993138395
C     2.7070638343     3.7889010513     -0.8514574967
C     1.490284796     4.2106406546     -1.4032550099
C     0.9195060127     3.5539227542     -2.5346805262
C     2.8466796024     2.2086084091     -2.7467193511
C     -1.6326885698     0.2468687942     -3.3577376041
C     -0.7786431196     1.4001013655     -3.3653572692
C     0.6547479216     1.233239565     -3.4027369994
C     1.493182963     2.3855956677     -3.0687398097
C     2.8042717932     -0.3952748129     3.3841596366
C     3.930664841     -0.4695948587     2.5279018134
C     4.4347665369     0.7711336528     2.061092689
C     3.6704395009     1.9924991489     2.2224638336
C     1.4039556687     2.9422299806     2.5598461447
C     2.4521363118     2.0193338219     2.9374346112
C     2.1174405262     0.827895428     3.6217396456
C     -1.001372753     3.4411862642     2.5511665101
C     0.0499717716     2.6778889125     3.0483865499
C     2.8049053347     3.6336856337     0.598071657
C     3.8493857928     2.8116158555     1.0707367823
C     0.4085758221     4.6691419451     -0.5881099501
C     0.4383400426     4.4429282346     0.8111490121
C     1.5982054188     3.7917723438     1.4072709737
C     -0.8276855738     4.3276457151     1.4461906261
C     4.1091056017     -1.6837816771     1.7460548477
C     4.8540569273     -1.5579217203     0.5469022492
C     4.4869732051     -2.3376566838     -0.6097194492
C     3.107389906     -2.7649086991     1.8465714306
C     2.9951197212     -3.6661588507     0.7806734869
C     3.6257542899     -3.38055252     -0.484375533
C     1.8494036378     -1.4677056382     3.4848229541
C     1.9217100004     -2.6219253743     2.6933163951
C     -0.578216401     -2.7876496272     2.9262663903
C     0.6691217374     -3.3236387786     2.4126253053
C     0.6079709893     -4.2456098035     1.2891550079
C     1.7695120491     -4.3663016408     0.494684743
C     -1.7946179838     -3.2763417204     2.4092135461
C     0.5902922613     -0.8974310476     3.8820541625
C     -1.7978084279     -0.614414507     3.5036047339
C     -0.6300012066     -1.483756543     3.5763894262
C     -4.0499537259     -0.3203798412     2.4794552929
C     -3.0357518696     -1.1807734403     2.9638110478
C     -3.0159396692     -2.4904661747     2.4489683752
C     -0.2971739352     1.3842314155     3.6526562301
C     0.749284074     0.5166434062     3.9353315332
C     -2.3671909772     2.96790084     2.5566093262
C     -2.7035185567     1.6743224941     3.0213569621
C     -1.630696219     0.8088688729     3.5315858092
C     -3.8820205842     1.1017927436     2.5119587616
C     0.4265018432     -4.5131892012     -1.5405918778
C     2.6728619575     -3.6450172599     -1.5275820679
C     1.6576475127     -4.4546984424     -0.9387696031
C     -0.7365396696     -4.7284872848     -0.7553991435
C     -1.8566767234     -4.1473141735     1.2947802127
C     -0.6663957093     -4.576383788     0.6589328281
C     -3.0655749124     -3.8372362685     0.5711705682
C     -3.0477028953     -3.7820987656     -0.8465154099
C     -1.8490904139     -4.1773919004     -1.4884647588
C     -3.8124444016     -2.7753878     -1.4942406755
C     -3.8104957805     -2.8584517107     1.3181949447
C     -4.6444343938     -1.9017688478     0.6646316143
C     -4.670951816     -1.8949813415     -0.7605102292
C     -4.9927363692     0.5909336677     -0.8053996454
C     -4.7457772638     -0.6430441711     -1.4711427873
C     -4.4707592783     1.7572209252     -1.4264000713
C     -5.0924029644     0.5743275604     0.6118045748
C     -4.8263071869     -0.653148437     1.3293337476
C     -3.0323016445     3.5526768164     1.4402061301
C     -4.0959790742     2.9117489418     -0.6631500452
C     -4.0789723735     2.8556628048     0.7601280155
C     -4.5621801285     1.6642740608     1.3755561764
C     -0.8140359325     4.5123972697     -1.3289302118
C     -3.0465349598     3.6050574236     -1.3710058709
C     -2.0659461126     4.3742516265     -0.6874980891
C     -2.0688965099     4.3630849389     0.7311093745
C     -3.808851979     -0.7117432676     -2.5492000408
C     -3.0567997276     0.4083880655     -2.9725159087
C     -3.5352631155     1.6498485751     -2.5147248384
C     -2.6752591656     2.788462395     -2.4813917158
C     -1.3428004064     2.7069554151     -2.9508387365
C     -0.494305209     3.7243285297     -2.4859797022


