100

 C     -2.3383762256     4.1968847129     -0.2111877621
C     -2.7988685     3.5365809538     -1.3579262592
C     -3.9332657839     2.6690732598     -1.1812206514
C     -4.1330387875     1.5289195662     -2.0382764029
C     -3.2945366101     1.330293627     -3.094672107
C     -0.9682930078     4.6198537533     -0.1057699986
C     1.3221411183     4.4702173538     -0.7493932437
C     -0.0253884527     4.4049752111     -1.1426701931
C     -0.4208084389     3.6028383528     -2.3001233195
C     -1.8227746327     3.2463027456     -2.4288323073
C     -2.1403141866     2.1968519698     -3.3048033229
C     -2.6878739233     -2.301308515     -2.9155738132
C     -3.4516639275     -1.13570672     -2.7739734357
C     -2.9682085263     -0.0054661779     -3.5056675625
C     -1.648611488     0.0306257819     -4.0173306685
C     2.4573918367     0.6796346355     -3.4694682044
C     1.1301926943     0.4717504355     -3.8043794243
C     0.6407715068     -0.9000404139     -3.7940210611
C     -0.7833885539     -1.088634194     -3.950887579
C     -1.3783342849     -2.2856140258     -3.5275539074
C     2.352916312     3.801554703     -1.5032087233
C     1.9950096388     2.9691368891     -2.5871596435
C     0.5961370807     2.8257830918     -2.9747166398
C     0.2209771827     1.6224348649     -3.6971801156
C     -1.1366155721     1.3851220668     -3.8879765653
C     2.908969017     1.9307484621     -2.8881132149
C     -4.2083736222     -0.9454726459     -1.5453752244
C     -4.6112416221     0.3985233191     -1.2488706467
C     -2.6979178852     -3.3209643558     -1.9226327228
C     -3.3101967999     -3.1195840134     -0.6667317226
C     -4.0756458428     -1.883117288     -0.4557067623
C     -4.291212582     -1.4002984889     0.9122587304
C     -3.6935706951     -2.1245426424     1.9715443149
C     -1.4483649718     -4.0500538147     -2.0618328002
C     -0.8980767526     -4.716331404     -1.0062355684
C     -1.5436648867     -4.6310264902     0.2868541996
C     -2.7118658157     -3.8326965357     0.4643577996
C     -2.8741679499     -3.2874046018     1.7482564426
C     -0.5901452814     -3.336051613     -2.9700169266
C     0.7967176547     -3.1858803853     -2.7497304659
C     1.4440225937     -1.9629193739     -3.2237947237
C     -4.5997742526     0.0079598613     1.1748144998
C     -4.7786749811     0.87037902     0.0603977885
C     -3.1642620086     -1.4552283994     3.11952201
C     -3.3590960548     -0.1037013852     3.2942633806
C     -4.1609609707     0.6213943561     2.3816878784
C     -1.8999452604     -2.0380930989     3.4540150853
C     2.5307634147     1.3949376348     3.1799321389
C     0.1588014529     1.1189569239     3.659873928
C     -0.7691666714     -1.2445079247     3.7352635522
C     -0.9629270706     0.2093387218     3.8531000634
C     -2.263339842     0.7201670471     3.7316337608
C     1.4794414734     0.5362252562     3.543071289
C     2.9355963318     -1.3830165081     2.8220208304
C     1.8616248693     -3.5506585562     2.3347220351
C     0.6383801112     -3.145348284     2.8997886408
C     0.5518823939     -1.8028300154     3.4598830117
C     1.6854906641     -0.9158788207     3.3983320291
C     2.9805594105     -2.6955311783     2.3042487055
C     -1.7977444786     -3.2581344695     2.688588661
C     -0.5073534613     -4.6650034852     1.261584074
C     -0.5574398917     -3.8371896795     2.4218734569
C     -3.6760666698     1.9954260921     2.4059141695
C     -3.7902618482     2.835472303     1.2751631779
C     -4.3782501188     2.2850381092     0.1067707551
C     -2.8010689956     3.835989221     1.102833248
C     -2.5136049839     2.0456634676     3.2301789665
C     -0.079175141     2.4891053912     3.2486398515
C     -1.4451988015     2.9324236756     2.9699789705
C     -1.679331965     3.9263598874     1.9884352742
C     2.2998102231     2.7361124527     2.7571214303
C     1.0063961093     3.2748286342     2.6964444446
C     0.747759292     4.2597932661     1.645363752
C     -0.5824109322     4.4963896191     1.259763848
C     1.7125143253     4.4651436636     0.6291428542
C     4.177606449     1.9166396762     1.6035621323
C     3.322019654     3.0618065156     1.7796765915
C     3.0128606978     3.8594319138     0.7010689353
C     5.0107689412     0.1907792428     0.1527606086
C     4.6928210058     1.5622882282     0.3229830923
C     3.7189461755     -2.9870917361     1.0796485665
C     4.4981433655     -2.0414301668     0.4875035535
C     4.7133763941     -0.7766479723     1.1511458431
C     3.930782727     -0.4467623918     2.2996380124
C     3.7304612374     0.9192281001     2.5196036912
C     0.7471711368     -4.8493879854     0.5677735384
C     2.9276153669     -3.8608285627     0.2664671034
C     1.8945122596     -4.3621852679     1.1202577436
C     4.3081995203     0.2333766434     -2.191049923
C     3.2987539729     -0.3789376422     -3.01539292
C     2.7910770298     -1.675842616     -2.7720954701
C     4.8316250499     -0.4701831835     -1.1375817369
C     4.427919144     -1.8344228412     -0.9338555244
C     3.4119188466     -2.4595538066     -1.7063040042
C     2.6753193183     -3.5599732639     -1.1026800672
C     1.398386507     -3.9676655541     -1.6668496929
C     0.53099307     -4.7433669247     -0.8497181753
C     3.4382352846     3.4767197379     -0.6299104371
C     4.2502026442     2.3372703297     -0.8417924067
C     4.0384375035     1.6511746725     -2.0718344132


