100

 C     -3.9725997331     -1.0799017522     1.9960877135
C     -2.9841133294     -1.984960341     2.587594597
C     -4.5913249242     -1.466791889     0.7853254143
C     -2.7628580391     -3.2372956846     1.9779705021
C     -1.4924863545     -3.895532925     2.054299576
C     -0.3910130309     -3.3646582158     2.758364348
C     -0.5802825467     -2.0897520504     3.4251569183
C     -1.8876170037     -1.4591457043     3.3815136806
C     -1.9618305593     -0.1069599708     3.7384400055
C     1.8602522125     -1.7971414508     3.4499186541
C     0.5864407321     -1.2749960983     3.7200584535
C     2.0470789372     -3.0338087932     2.7689651856
C     0.9413720387     -3.7935560406     2.343798133
C     1.1129446244     -4.5062021752     1.1250457043
C     -3.0110042922     0.7614907474     3.2711087599
C     -3.9448144862     0.3436543901     2.2968792294
C     -4.4209137485     1.3286705128     1.3197114904
C     -2.4916151061     2.0968108837     3.3039252126
C     -2.9502454982     3.0237454916     2.4020800957
C     -3.938099538     2.6588231976     1.4285453325
C     0.2546656042     4.4408201418     1.2368922801
C     -2.0027129536     3.9587221553     1.8295666415
C     -0.628384835     3.9216214988     2.1897675712
C     0.5035478695     0.1664697564     3.8352690656
C     -0.7863866727     0.6902637299     3.9652823853
C     -1.0830917131     2.0399279567     3.6562424966
C     1.2560185161     2.3943491072     2.9690751778
C     -0.1152730334     2.8855605165     3.0864465192
C     1.5731853952     1.0544475857     3.3987212615
C     -4.8366389097     0.8782048449     -0.0038237981
C     -4.9354293084     -0.5120923192     -0.2288695612
C     -3.6243627068     3.4360458217     0.2551176234
C     -3.8634765772     2.9429566326     -1.0022286946
C     -4.5478497124     1.6892174874     -1.1490789562
C     -2.4087028853     4.1881590343     0.4835987886
C     -1.4492435027     4.3532531491     -0.5555795025
C     -0.1496391685     4.6368182616     -0.1229574203
C     -4.0976092977     1.1093340354     -2.3710508674
C     -4.1023290028     -0.2911106374     -2.5610882261
C     -4.6146853981     -1.0985688432     -1.5094567452
C     -3.0787967164     -0.8486346589     -3.3717059595
C     -1.6112939548     3.6657396135     -1.8343778031
C     -2.8714249005     3.067496196     -2.0582547101
C     -3.0133378899     1.9336404436     -2.8848233675
C     -0.4425188691     3.1562348587     -2.5438754461
C     -1.8825556377     1.3553211297     -3.520385268
C     -1.99230994     -0.0143631192     -3.8505787004
C     -2.5609378214     -2.148982411     -3.1279724614
C     -3.0346858945     -2.9492983751     -2.0553585777
C     -4.1271392004     -2.4326686786     -1.303943801
C     -4.2090255198     -2.6805176119     0.1089738632
C     -3.3403842292     -3.5543324189     0.7025785891
C     -0.6914482344     -3.9238686029     -1.889200577
C     -2.089432612     -3.8735236995     -1.4260763427
C     -2.3475945885     -4.2545016663     -0.0914662786
C     0.2753383873     -4.4902125219     -1.051618175
C     -0.0233694467     -4.8140334756     0.3212916111
C     -1.2928786241     -4.6100658877     0.8060443557
C     -1.1608151452     -2.1391392489     -3.4879362789
C     2.7692555106     -0.7078570007     -3.2946645807
C     1.4882894568     -1.2306907651     -3.4754636448
C     1.1795262492     -2.5315230846     -2.9078441161
C     -0.206358743     -2.9628761183     -2.8758622428
C     2.1396878558     -3.1333645413     -2.0068778779
C     1.6620665688     -4.0988467249     -1.098249629
C     1.9270319709     1.6340452331     -3.2904435603
C     0.4504868965     -0.2858705532     -3.826251465
C     -0.8396367908     -0.8193829527     -3.9463255822
C     3.0052163539     0.705355839     -3.2924630826
C     0.6109588067     1.1394606039     -3.6127235049
C     0.9838894218     4.3990660234     -0.9647777251
C     0.8835580617     3.5903187212     -2.1211037263
C     -0.5661147994     1.9533792338     -3.3406788757
C     2.0786316898     2.8716488408     -2.5515946141
C     3.2913618003     3.0669607735     -1.8262459658
C     4.6598729086     -0.3480456908     -2.0058278511
C     3.7540833402     -1.358073937     -2.4666799142
C     3.4064767866     -2.4793510394     -1.6924217599
C     5.1738732678     -0.432333997     -0.7196707063
C     4.840336179     -1.5578607921     0.0991837011
C     3.996106999     -2.601377929     -0.3602167414
C     4.8000325648     1.9754509568     -0.39948499
C     4.3278481834     2.075959275     -1.7785852151
C     4.2055575426     0.9271901907     -2.5324173383
C     5.1879812303     0.7606159588     0.1180143444
C     2.1162927218     4.2889874955     -0.095989676
C     4.0124504218     2.8673658659     0.4024573816
C     3.2498187794     3.6614695457     -0.5203696504
C     3.8807131799     -1.6922309802     2.3497845485
C     2.9850364123     -0.9341209847     3.1794917763
C     2.853797189     0.4609228111     3.0369754665
C     4.6990815452     -1.0559409509     1.4521002452
C     4.7455976798     0.3826318209     1.4331851091
C     3.793870567     1.157583758     2.159302695
C     3.4334189874     2.4604642351     1.640344439
C     2.1811614063     3.0867028667     2.0681186721
C     1.6499731939     4.1080050686     1.2504022609
C     2.1907864338     -4.1733831905     0.2330809085
C     3.2860038936     -3.3768072054     0.6457630999
C     3.2507470518     -2.9281285919     1.9894696706


