100

 C     4.0946244764     -1.5893268795     1.9054686942
C     4.2875018155     -0.1954952966     2.0170677708
C     4.9873379151     0.4355340777     0.9521888569
C     4.8368786926     1.8330537959     0.7074862312
C     4.0651435916     2.6000666873     1.5619992042
C     3.0322302606     -2.2437474444     2.5953185863
C     1.9861816029     -1.5261029411     3.2299557822
C     2.1205245708     -0.0847859297     3.336067279
C     3.3222380052     0.5594548108     2.8112405282
C     3.30364816     1.9587290334     2.6143455811
C     -0.3508466751     0.0385212051     3.7869636706
C     0.9386814668     0.696741349     3.6061122658
C     0.9434317624     2.1212586468     3.3142315276
C     2.1122051237     2.7084630823     2.812361967
C     -1.4978806963     0.8447110266     3.8196489554
C     0.6698664282     -2.1658087644     3.3201968167
C     0.509170666     -3.4585408139     2.763310082
C     -0.5207105211     -1.3876562853     3.535441919
C     3.8944858651     2.9868287811     -1.2430879391
C     3.173630017     3.8679864518     -0.3439772651
C     4.7405048951     2.0278304625     -0.732894414
C     3.2581781125     3.6755868472     1.0341834209
C     2.0644910098     3.7676484999     1.8206706885
C     1.9022515457     4.1525551275     -0.9351173824
C     0.7438093572     4.3522719447     -0.1733996979
C     0.8374666139     4.1694976574     1.2709067643
C     -1.4730147238     2.2400495972     3.4848611039
C     -0.2830341891     2.856058138     3.086942887
C     -0.3462217607     3.856548191     2.0318972875
C     -1.5847141019     4.1048486428     1.4136601617
C     -0.6336270706     1.2832489328     -3.8903289811
C     0.6156542479     1.8024917724     -3.5143088096
C     3.0183321046     2.6641055991     -2.354681753
C     2.9944992922     1.36404065     -2.9264416906
C     1.8247995719     3.4254280771     -2.1821795775
C     -1.6759042316     4.2276852013     -0.0273278438
C     -0.5369142154     4.1823402642     -0.8396306476
C     -0.6270798411     3.5121225242     -2.131973852
C     0.5961411758     3.0173386052     -2.729922007
C     -1.8908881694     2.9566036708     -2.552008014
C     -1.8481645293     1.8956759564     -3.4936316372
C     1.7506554402     0.9130651965     -3.5133165738
C     3.9864533793     0.3957246403     -2.4617410305
C     4.8285583808     0.7341463933     -1.3610496919
C     1.4999933667     -0.5162998924     -3.6613851595
C     2.4886934828     -1.4139349837     -3.2503225095
C     3.7150634741     -0.9788027006     -2.6542481642
C     -0.8626763606     -0.1317632066     -4.0402282773
C     0.1489011336     -1.0502268902     -3.7813419708
C     -1.6249023201     -2.5889447927     -2.9087751973
C     -0.2291502469     -2.3499399018     -3.2377740079
C     0.8022778886     -3.1559631999     -2.6260852805
C     2.1433964729     -2.7035750809     -2.7135329339
C     -1.9085527489     -3.6131470823     -1.9843473045
C     -3.9646560109     0.9458017409     -2.7004673817
C     -2.874390598     0.871892012     -3.5265769885
C     -2.2474575299     -0.3954506216     -3.7696395774
C     -4.494543779     -0.2457649801     -2.1055674126
C     -3.8410299198     -1.4948814576     -2.2568043211
C     -2.653106901     -1.5690009316     -3.1169980589
C     -2.9398186102     3.6831864794     -0.4435711615
C     -3.069827526     3.0475904139     -1.6960060011
C     -4.093963088     2.060412936     -1.7808607114
C     4.103138871     -1.973538326     -1.7061541712
C     4.7208748365     -1.5911596568     -0.4874640384
C     5.0883083644     -0.2284974259     -0.3332001969
C     4.3574160752     -2.303699741     0.6836595484
C     3.1292343765     -3.0429116485     -1.7456722771
C     2.7913566437     -3.783052201     -0.5801956358
C     3.4753257459     -3.4332539313     0.6216251205
C     1.5420694939     -4.0521838548     1.9447226063
C     2.7686162349     -3.4606361648     1.868026473
C     -0.8762345488     -4.3389313298     -1.3265781932
C     0.4935616935     -4.1121727896     -1.581842269
C     1.4558181663     -4.3658805468     -0.5088495233
C     0.9374157119     -4.6458137235     0.7854845121
C     -2.641264128     -4.025056619     0.1874444341
C     -1.3541356105     -4.6279533485     0.0056172781
C     -0.4673330788     -4.6727861386     1.0453752288
C     -3.9988774005     -2.4118567201     1.3133674888
C     -2.9634279988     -3.346917054     1.4006023496
C     -5.0647388027     0.1678174836     -0.8427068023
C     -5.0789847456     -0.6941568647     0.2281478667
C     -4.5712294575     -2.0293778092     0.0621602546
C     -3.9739651019     -2.4421911216     -1.1643344016
C     -3.037656933     -3.4894899693     -1.0707717466
C     -3.6396865985     3.2177829577     0.7167677115
C     -4.4847308069     2.0836186949     0.6751268939
C     -4.7744231689     1.5813598005     -0.6285046387
C     -3.5670308144     1.3928472042     2.87705309
C     -2.738301833     2.5711194434     2.8982689601
C     -2.7891545192     3.4851017105     1.8600180164
C     -4.7617368468     -0.223770813     1.5625240334
C     -4.4581413875     1.1430103762     1.806887082
C     -0.7417289075     -3.9058733938     2.2621286909
C     -1.9100956221     -3.1532954791     2.407766561
C     -1.8198854392     -1.9065173641     3.1461380686
C     -4.0459712936     -1.2740052495     2.2037730392
C     -2.9618571046     -1.0093608941     3.0882956114
C     -2.7980190662     0.3340674623     3.4675061701


