100

 C     -4.9300523896     1.7471566141     -0.2740187958
C     -4.5605858315     1.7007706773     -1.6815470935
C     -5.2282226401     0.5820877585     0.4100101762
C     -4.5647145042     0.4983582863     -2.3503182874
C     -3.4996760509     0.1971085119     -3.2595817187
C     -2.4925296139     3.3542494547     1.988941629
C     -3.6073454203     2.5588034035     1.6659132647
C     -4.1422005961     2.7543946814     0.3581698479
C     -3.3315821696     3.3618944625     -0.6599202479
C     -2.1377485772     4.0273326953     -0.3663936692
C     -1.8524718817     4.1982499051     1.0139372272
C     0.4581504845     4.6746313338     0.5125278633
C     -0.5177129319     4.4237037898     1.4482830004
C     -1.0756098233     -0.9831897102     -3.9685469486
C     -1.0811997329     0.4204285929     -3.7649489499
C     -2.3515209193     1.0320239077     -3.3865930816
C     -2.3375220282     2.2948373409     -2.6727055703
C     -3.4752811653     2.6219290772     -1.8824023867
C     0.1786908968     2.3957682223     -2.8864948756
C     -1.0716005865     2.9612227919     -2.4014623982
C     -1.0462521357     3.9499288841     -1.3330700282
C     0.1929091271     4.4345679529     -0.8992723912
C     -3.7547984279     1.2740050626     2.327741294
C     -4.648116947     0.3345819575     1.7089720999
C     -1.4874708946     2.9053099181     2.8944879319
C     -1.511788611     1.6104810473     3.4178900692
C     -2.6974526724     0.7802227196     3.1793204857
C     -2.6041973827     -0.6524411048     3.4175729079
C     -1.4018282467     -1.1537196312     3.9402728779
C     -0.2359896362     3.5666362277     2.5680173904
C     1.0191070848     2.953675399     2.7142954282
C     1.0521203665     1.63212779     3.335724773
C     -0.2130594145     1.0295809032     3.7460595095
C     -0.2166277647     -0.3285769688     4.0774677227
C     3.38583779     1.3182259776     2.4386239221
C     2.2278581998     0.8165866608     3.1831573001
C     2.1307961099     -0.6159027757     3.4093269812
C     0.9270611509     -1.1355275523     3.8856604625
C     4.3709876147     0.3886683345     2.0340916112
C     3.3089711459     2.5873735785     1.7305756811
C     2.1096095681     3.398086567     1.8519154009
C     4.1284044818     2.7648585706     0.5797332391
C     1.7967527273     4.2908511407     0.790106627
C     -3.4542721738     -1.5881293808     2.6767449144
C     -4.4424436248     -1.0642624182     1.8203514348
C     -0.9568745469     -2.4847930524     3.6505400611
C     -1.7000204756     -3.3156341677     2.8178775739
C     -2.963771149     -2.8757812819     2.3403338862
C     0.4655781409     -2.4781200717     3.5468235437
C     -1.0398575082     -4.032241637     1.7700680949
C     0.3423029854     -3.9861043273     1.609004423
C     1.1406741549     -3.2342969029     2.5867525679
C     4.1808888778     -1.0470814611     2.1710242947
C     3.0264753753     -1.5634703201     2.7647059266
C     2.4986570501     -2.839696279     2.2809691067
C     3.0840176026     -3.4192139295     1.1449594293
C     -3.1486372086     -3.4163362803     1.0061583896
C     -3.9931134007     -2.7749842519     0.0642167443
C     -4.7824367851     -1.7056097049     0.5580720583
C     -5.273763197     -0.6831705637     -0.3072489019
C     -4.96300288     -0.7315692488     -1.6611550871
C     -2.3239104439     -3.4134770852     -1.7119303127
C     -3.611927702     -2.8100982298     -1.3395547287
C     -4.160527765     -1.8012136876     -2.1776009179
C     -1.7047835642     -2.9675529391     -2.9014152702
C     -2.1946655818     -1.8106724699     -3.607586712
C     -3.3755136131     -1.2381605037     -3.2555069764
C     -1.9407512663     -4.054997581     0.625910352
C     2.2306684323     -3.9806297217     0.0949495845
C     0.8614299385     -4.1722978968     0.2661911504
C     -0.0158021404     -4.0737215718     -0.8941072998
C     -1.4517397862     -4.0003534654     -0.7045327625
C     0.5647939466     -3.5516747511     -2.1064118624
C     -0.2948985478     -2.9706023875     -3.0532325169
C     4.0663698366     -2.9543474943     -0.9093296383
C     2.8063835238     -3.5940408616     -1.161205751
C     1.9563923411     -3.1788849036     -2.2010618567
C     4.4916723336     -1.9202264982     -1.7289016724
C     3.5984405856     -1.4240001947     -2.7467308
C     2.3534406896     -2.0053585832     -2.982089134
C     5.3775842807     -0.6899333572     0.2037062381
C     4.8219134074     -1.7045576974     1.068316818
C     4.2318014198     -2.8470784862     0.5253780133
C     5.2122958969     -0.794130602     -1.1796772651
C     4.7919362132     1.6184586071     -1.3497468411
C     4.9841954418     1.7327871832     0.095007778
C     5.1726519679     0.5909246095     0.8536534427
C     4.8251617033     0.3735502275     -1.9473906444
C     2.432297426     4.123830134     -0.4921559128
C     3.7947805344     2.564858641     -1.7389629575
C     3.5738793912     3.406376229     -0.5895979266
C     0.0867348233     -1.7528058911     -3.7367291694
C     1.3315032895     -1.1557282799     -3.5582887328
C     1.4096075583     0.2896077356     -3.5227782264
C     0.1818973715     1.0737479017     -3.5031912461
C     3.7680528844     0.0061797588     -2.8541863326
C     2.671303352     0.8730948353     -3.1178881147
C     2.6970918797     2.215267623     -2.5755356211
C     1.4424804245     2.9571318123     -2.4448205872
C     1.406220528     4.0115526651     -1.5005843292


