100

 C     -3.8779926507     2.7658696932     -0.7151731992
C     -4.7653094535     1.6615742147     -0.746923923
C     -5.1503008444     0.9654715591     0.435187083
C     -3.3407109123     3.1785341154     0.5809913486
C     -3.707795816     2.4452170736     1.724691596
C     -4.6326884046     1.3642011226     1.6694658665
C     -0.135681421     4.6837338728     -0.6329405222
C     -1.529563269     4.3978252293     -0.5310741844
C     -2.097589378     3.9282403009     0.6677163457
C     0.6541159154     4.6837184436     0.4911962321
C     0.1059571293     4.2026129155     1.7302427355
C     -1.2028545632     3.7376251134     1.8147916566
C     0.3767129267     4.1047885548     -1.8483349429
C     1.6366525972     3.4804564448     -1.9032796175
C     1.8005489903     2.3350799962     -2.8007921534
C     -4.917099951     -1.3967318341     1.0842958617
C     -4.3951824724     -0.9691684313     2.3793955601
C     -5.2396878273     -0.4575522022     0.127952938
C     -4.2151050979     0.3683034619     2.6368644647
C     -2.9806301087     0.8091031523     3.2401893448
C     0.3493921451     -1.8695458062     3.2902887072
C     0.5697837617     -0.4739816717     3.5905937438
C     -1.9121894052     -0.080163796     3.5399372892
C     -2.141822103     -1.5023159202     3.332160049
C     -3.3933007586     -1.9102533733     2.7950504847
C     -0.3489472543     1.8487839487     3.3013884523
C     -0.5693749532     0.4514458692     3.5932954227
C     3.3937991932     1.8924681077     2.806841408
C     2.1422590812     1.4813119424     3.3413484591
C     1.9126031617     0.0579411801     3.5405759879
C     2.9810820085     -0.8295065387     3.2356264485
C     -1.4378525375     2.6472272233     2.75084717
C     -2.7206720908     2.1163762565     2.7540675468
C     0.9987384707     2.3614365855     3.1707183291
C     1.1754810205     3.5726238026     2.4648797449
C     -2.373778988     -3.8102950775     1.6885161101
C     -4.2222020612     -2.5881403542     0.6992523105
C     -3.4487262691     -2.9904788574     1.8509018542
C     1.4383655841     -2.6646660486     2.7350918105
C     -0.998278862     -2.3814033469     3.1563887483
C     -1.1749371475     -3.588335559     2.4432803244
C     2.7211843627     -2.1338401183     2.7416439489
C     -2.0203861528     -4.2862012295     0.3726937276
C     -2.5397304142     -3.6449029151     -0.7807759068
C     -3.6941159285     -2.767225756     -0.6104021145
C     -3.9622429618     -1.7388913696     -1.6023879563
C     -4.8154031343     -0.6601686974     -1.2319195168
C     -4.6592484993     0.6563374623     -1.8012285076
C     -2.9990196015     -1.5209598416     -2.6891896481
C     -3.0045105043     -0.2593162717     -3.3245761113
C     -3.8022489822     0.838186773     -2.8485020557
C     -0.6533423815     -4.687558159     0.4630274526
C     -1.6356080376     -3.4699528893     -1.9242980049
C     -1.799397698     -2.3192129436     -2.8149438576
C     0.1365828778     -4.6808373903     -0.6609976317
C     -0.3756728321     -4.0946015917     -1.8729524349
C     1.2034790101     -3.7494272554     1.792484898
C     -0.1053241032     -4.2139039581     1.7050008535
C     1.530454583     -4.3955388187     -0.5572575932
C     2.0983461504     -3.9331565377     0.6443921418
C     -1.9457817421     3.8419123417     -1.8026374704
C     -3.081476993     3.0269100206     -1.9139524826
C     -3.0462870269     2.0612094299     -2.9625463107
C     -1.8340231201     1.7482016628     -3.6297366862
C     1.8135179076     -0.2933638941     -3.8536310149
C     0.6209698574     0.4053596454     -3.9042315225
C     0.6410581285     1.7989656915     -3.4893165254
C     -0.6386409664     2.4672554515     -3.3881447635
C     -0.7593600587     3.6088693621     -2.5741548918
C     0.7604816448     -3.5943390487     -2.5956525922
C     0.6398550637     -2.4478670749     -3.4027988848
C     -0.6398316983     -1.7789821752     -3.5001087815
C     -0.6196959238     -0.3829123366     -3.9066660895
C     -1.8122498841     0.3154966296     -3.8520142907
C     1.8352643207     -1.7273780331     -3.6399418974
C     1.9468172411     -3.8320030638     -1.8254119795
C     3.082523858     -3.0163480771     -1.9317092137
C     3.0474533022     -2.0443795043     -2.9745028583
C     4.6333243547     -1.3751654398     1.6617896071
C     3.7084285547     -2.4564950684     1.7104285217
C     3.3414744357     -3.1829366929     0.5623086462
C     5.1510810742     -0.9690400397     0.4299843826
C     4.7662226256     -1.6580369191     -0.7563228668
C     3.8789023728     -2.7625016812     -0.7312956218
C     4.9177996769     1.3892262963     1.0932186374
C     4.3957295518     0.9538990974     2.3856673414
C     4.2156297711     -0.3850924581     2.6350967062
C     5.2404994203     0.4558011603     0.1312975261
C     2.374408199     3.7991110779     1.7115996917
C     4.2229413746     2.5829179082     0.7152414987
C     3.4493354789     2.9783372338     1.869193105
C     3.8034012122     -0.8220633509     -2.8530408388
C     3.0057190788     0.2782734983     -3.3226228475
C     3.0001550472     1.5360851442     -2.6796867051
C     4.6602823545     -0.6464977039     -1.8045979245
C     4.8163701891     0.6665694428     -1.2273860882
C     3.9632512008     1.7474909118     -1.5914810402
C     3.6950053233     2.7698551647     -0.5933780707
C     2.5406436734     3.6485407406     -0.7586232222
C     2.0211679817     4.2829047954     0.3986132423


