100

 C     4.8373264957     1.3143388268     2.0568281529
C     3.8589425676     2.3267635502     2.3899491377
C     5.3651927278     1.2509312218     0.7632985151
C     3.4827356224     3.2720136839     1.4431759904
C     2.1234788721     3.7126497767     1.3801883733
C     -1.8838810884     0.6405740785     3.7447942824
C     0.4730975754     1.20036477     3.5543316208
C     1.1251305149     3.2025761873     2.231995844
C     1.4909426954     2.1342256601     3.1436880703
C     2.8364422111     1.7283921487     3.2118557261
C     -0.9155263775     1.5898689337     3.4076507911
C     -2.671495332     2.7730542008     2.0419539134
C     -1.8279196877     3.947128721     0.059899659
C     -0.5227912676     3.9130478285     0.5234968845
C     -0.2577511727     3.3843137854     1.8391465259
C     -1.3040990483     2.6962342638     2.5325701365
C     -2.9152873     3.4999626472     0.851238926
C     5.2162029006     -1.1984577181     0.7814125308
C     4.6330081607     -1.1286780712     2.1056087455
C     5.5363760026     -0.0271470519     0.1083466821
C     4.4297928625     0.0963893779     2.719101602
C     3.1810120579     0.3402144753     3.4008218406
C     -0.214427056     -1.1805507449     3.7719390329
C     -1.5352721101     -0.7354859227     3.93790982
C     0.8215879042     -0.1860352383     3.7317294489
C     2.1763933294     -0.635864215     3.4915324608
C     2.4092037681     -1.9420702787     2.875159097
C     3.6238223702     -2.1492696956     2.2002271829
C     3.2641707788     -3.0642785777     -1.7797803386
C     4.3199580458     -2.2305497865     -1.3109829837
C     4.5939985018     -2.2981458427     0.0792890525
C     3.6594115905     -2.9138129787     0.9786688836
C     1.3123463911     -3.5802534552     1.3290121258
C     2.5092940469     -3.5818235378     0.5172768488
C     2.3979656073     -3.7514147119     -0.8843881108
C     -1.0954975606     -3.8842967018     1.4610140486
C     0.0653511928     -3.9852903055     0.7086114974
C     0.0090118817     -2.4820304428     3.1471722969
C     1.2706963615     -2.7730779834     2.520805294
C     -1.1216970957     -3.2012705947     2.7137684325
C     4.5796374903     -0.9639716365     -2.0102250144
C     5.160298353     0.1132965016     -1.2909539304
C     2.4629798717     -2.693903181     -2.9273349975
C     2.6682023481     -1.4795392269     -3.54031029
C     3.7163257318     -0.6003219388     -3.0820357589
C     1.1184623607     -3.1723423974     -2.7458165476
C     -2.413209946     -1.9137027299     -2.8941849818
C     -3.6276955297     -2.1286195498     -2.2214311018
C     -1.2741914853     -2.7476327015     -2.5484424042
C     -0.0126854295     -2.4493468681     -3.1717604042
C     0.2099531045     -1.1413396568     -3.7830312296
C     1.5305231655     -0.6937703444     -3.9443861563
C     -0.0681015339     -3.9777938458     -0.7488796293
C     1.0926818744     -3.8683128665     -1.5001936942
C     -2.4008524725     -3.7618370312     0.8464455314
C     -2.5122870134     -3.5778224725     -0.5533904272
C     -1.3153442123     -3.5671185095     -1.3650636818
C     -3.6628137018     -2.9057810885     -1.0078486314
C     3.2297410432     0.7321115415     -3.2246862282
C     3.6444963649     1.7733846002     -2.3718214665
C     4.7245535207     1.4651908849     -1.4915337398
C     4.8922295322     2.1793925309     -0.2438468096
C     3.9913060114     3.1714555512     0.0861183803
C     1.8782865292     0.6804356259     -3.7370483329
C     0.9093490688     1.6255962161     -3.3901073818
C     1.2972417451     2.723088207     -2.5036295531
C     2.664591214     2.7956706721     -2.0122384841
C     2.9079366694     3.5103700886     -0.8140644419
C     -1.1323014207     3.2248014269     -2.1978414597
C     0.2504705992     3.4033150858     -1.8031303219
C     0.5151864422     3.918569391     -0.4820795188
C     1.8202953965     3.9486548753     -0.0181480963
C     -2.130960327     3.7254187747     -1.3408049111
C     -1.4974572695     2.1657130778     -3.1205373129
C     -0.4790358897     1.2367773194     -3.5408126073
C     -2.842705855     1.7597754317     -3.1928987506
C     -2.1812031551     -0.6010507725     -3.4970162864
C     -0.8266730226     -0.1479285282     -3.7325410047
C     -3.1864183794     0.3734179403     -3.3962106797
C     -4.8433291709     1.3325658532     -2.0422162067
C     -3.8655753278     2.3489872833     -2.364849954
C     -3.4899473733     3.2846203888     -1.4083469657
C     -5.3711582748     1.2554573172     -0.7494143708
C     -5.2206601224     -1.1935201823     -0.7928630113
C     -4.6375083429     -1.1096835222     -2.1162613006
C     -4.4350485859     0.1217864126     -2.7170518144
C     -5.5415537589     -0.0294316425     -0.1077183558
C     -3.2674781789     -3.084538661     1.7488987959
C     -4.3237775768     -2.2466528558     1.2887482143
C     -4.5977779171     -2.3000290207     -0.1021504271
C     -3.7211402497     -0.6344650146     3.0765718548
C     -2.6724760616     -1.517732478     3.5257309735
C     -2.4665112215     -2.7255620576     2.900226603
C     -5.1655609315     0.0967567778     1.2929630449
C     -4.584235478     -0.9875372443     2.0010550618
C     -3.9984510768     3.1697164045     -0.052404073
C     -4.8987635711     2.1737391841     0.26728105
C     -4.7306444298     1.4467721998     1.5075165409
C     -3.6507704009     1.7465023829     2.3909443474
C     -3.2353716832     0.6967177953     3.232994309


