100

 C     -3.2286000136     -3.1012801751     1.4316941129
C     -4.1532419191     -2.0531026428     1.5574790717
C     -0.8072572264     -4.5384878205     1.1099860304
C     -1.0592995542     -3.9191171232     2.3104479767
C     -2.2970836461     -3.2357567741     2.4984961068
C     0.5435485005     -4.6218078749     0.6354606377
C     -2.0451121704     -2.1329078431     3.3754379636
C     -2.857263193     -0.9855240124     3.3791422391
C     -4.0412954468     -1.0607147585     2.5959341283
C     -4.7123483462     0.1198832345     2.1416247604
C     -4.1955675336     1.3614197943     2.4827907892
C     -0.631574108     -2.0532536896     3.6002957209
C     0.0331234536     -0.8235369927     3.719569248
C     -0.7717890578     0.3968219951     3.7331627512
C     -2.2213950279     0.3018595681     3.6165858766
C     -2.9470645705     1.4440576021     3.2083725337
C     1.322079211     1.6984660758     3.3910377924
C     -0.1190773683     1.6429729385     3.4486867693
C     -0.877754934     2.7227655638     2.8490419686
C     -2.2622173218     2.6071889236     2.7536977321
C     1.908981454     2.8641983355     2.8459508642
C     2.1136337555     0.4759233028     3.4149346793
C     1.4487898457     -0.8039424258     3.4044851447
C     3.4563067091     0.5291324267     2.9947568372
C     1.2914732224     -3.1145624943     2.4423432651
C     -0.0065490781     -3.1822286524     2.9637992846
C     4.6123946484     -2.0235655881     0.0034354092
C     3.7110697283     -2.5889832981     0.9429359512
C     3.3732193334     -1.7914332184     2.122609355
C     2.0829178911     -1.9432244808     2.7663188746
C     4.078146217     -0.5885455755     2.3439629694
C     1.6102220138     -3.9318469531     1.2654444217
C     2.7257809867     -3.8646415172     -0.9257486788
C     2.7767238499     -3.5986960949     0.4670327293
C     -5.2137983578     0.9036820342     -0.122474656
C     -4.7332397995     2.2330134759     0.2534938112
C     -5.2013778826     -0.124030038     0.8008254121
C     -4.2200095703     2.4441989938     1.5222750987
C     -2.0636510039     3.6934386763     -1.8732348419
C     -4.1000027945     2.8206347022     -0.8888276709
C     -2.9298945838     3.6217736935     -0.7530542789
C     -2.9975051115     3.2041053868     1.6686546806
C     1.1375366647     3.7429348438     2.0086941637
C     -0.2509242271     3.6459008687     1.9321586924
C     -0.9137680775     4.0531235693     0.7164396591
C     -2.3355275836     3.7950193821     0.5719167052
C     -0.0874069007     4.2198839474     -0.4580457997
C     -0.6770873884     3.9769643844     -1.7146312309
C     -3.478565101     -0.6492739792     -2.9938875897
C     -4.3600795803     -0.6237501147     -1.880979503
C     -4.8396070578     0.6577745797     -1.4776011367
C     -4.1974458551     1.8612019364     -1.9606973122
C     -2.1989323668     2.7933219376     -2.9786888134
C     -3.2244073249     1.8181114269     -2.999391788
C     -2.9192694819     0.5528835861     -3.5509868727
C     -4.2668574735     -1.7097520937     -0.9033301517
C     -4.7493078116     -1.4415708343     0.4044155989
C     -2.5175387057     -1.6792472867     -3.1385329214
C     -2.4013446795     -2.7499373867     -2.2230376057
C     -3.2788128153     -2.7754390779     -1.0684913214
C     -2.8599340222     -3.5435372881     0.0914496228
C     -1.7054029821     -4.3455738479     -0.01642466
C     0.0024892003     -2.9408271807     -3.0075877988
C     -1.1486942705     -3.4734338206     -2.256062622
C     -0.8962101383     -4.3629792338     -1.1958005675
C     1.2807637106     -3.4056419377     -2.7029167172
C     1.5079261163     -4.2639534596     -1.5589323575
C     0.4525584317     -4.6816480154     -0.8015967019
C     -0.8756934279     2.4904402607     -3.4710500595
C     -0.5241909235     1.1868370082     -3.9004592759
C     -1.5914230348     0.256407487     -4.0189726288
C     -1.3594270895     -1.1210559114     -3.8067904892
C     1.0718928334     -0.7259533174     -3.6661946541
C     -0.0703027544     -1.6347168499     -3.6356087987
C     0.0519297779     3.2684344087     -2.7412283034
C     1.3861711412     2.8748562606     -2.5752498528
C     1.8267616971     1.6077475433     -3.1305152275
C     0.8333062214     0.704591581     -3.6871895643
C     3.9504965277     1.9272131975     -1.9228282469
C     3.1309590286     1.1106747745     -2.7489485704
C     3.4155208728     -0.3130837337     -2.8222281693
C     2.3627489602     -1.22526516     -3.2578898735
C     2.4465130949     -2.5855137469     -2.8729241448
C     3.2720104244     3.6383883992     1.1129574852
C     1.9442573639     4.1219082562     0.8839518762
C     1.3537783817     4.1280399689     -0.3935100744
C     4.0386974418     3.1989216767     0.0461229738
C     3.4163806792     3.0901876422     -1.2570837385
C     2.1065653999     3.5165676666     -1.4923991807
C     4.9631767775     1.3769038063     1.4101175972
C     4.0404442502     1.74134689     2.4635803953
C     3.2554729622     2.8708364835     2.3460680959
C     4.9427907423     2.0873048892     0.2053458833
C     5.1581447672     -0.0061790248     -1.0582080092
C     5.2198574247     -0.7375485027     0.1991869357
C     5.0367183478     -0.0662146132     1.3933994764
C     4.9444324797     1.3587087368     -1.0490600206
C     3.3796575729     -2.9868450227     -1.8555575548
C     4.4644315996     -0.8246403476     -2.0084081319
C     4.3394589797     -2.1266722925     -1.4098199912


