100

 C     4.7120730352     2.0916800695     -0.5614541435
C     4.933874183     0.9689829417     -1.3223573482
C     4.1135818507     0.7273556938     -2.4762130973
C     1.9320898185     -0.4470641283     -3.7746267783
C     -1.8904195398     1.2547396211     -3.5984908189
C     -0.606915219     0.7218816668     -3.7625586615
C     0.5512607832     1.5435665171     -3.4518734995
C     1.8597561432     0.9291591713     -3.4704811993
C     2.9886568993     1.5433913056     -2.7821765526
C     0.3650346825     2.8175420265     -2.7716881976
C     2.7595555161     2.74078392     -1.9884467361
C     3.6665634966     3.0131734429     -0.9293798491
C     5.2051235459     -0.4004045517     0.7033573492
C     4.9035403263     0.7673845376     1.5037001745
C     5.223876297     -0.3146318746     -0.681215359
C     4.731965882     1.9982056488     0.8917742347
C     3.760523915     2.8969705559     1.4042580967
C     2.9124188178     2.5205781217     2.4894996129
C     1.7376382481     3.2655409349     2.6174469139
C     1.9424352367     4.2249200299     0.3492468878
C     3.1951282215     3.6131424795     0.2852846973
C     1.3312814597     4.2280784267     1.6400972071
C     -2.0945917607     2.5371328986     -3.0354288157
C     -0.9909006614     3.303611244     -2.5766612294
C     1.4402806214     3.3605105202     -1.9585820226
C     -1.2673493092     4.2029006198     -1.5181165743
C     -0.2380295644     4.6183038552     -0.6519384625
C     1.1078748757     4.2301148226     -0.8421047703
C     3.0868872499     -3.3973584044     1.1620855513
C     4.0543153654     -2.6024436915     0.5261370328
C     4.5665328002     -1.5361911044     1.3089010975
C     2.9218330814     1.1538713722     2.9924831491
C     3.9943499382     0.3498468017     2.5508066209
C     3.8484489845     -1.0662134208     2.4649026383
C     1.6706603967     0.5182962356     3.4300516974
C     2.6747398947     -1.6997503361     2.9147331505
C     2.4540482845     -2.9837409594     2.373992134
C     4.0141064009     -2.495160353     -0.9260745427
C     4.6383390703     -1.3567922417     -1.4918561264
C     1.0500887254     -4.4753063003     1.3073784453
C     2.1356665214     -4.2016608166     0.4252763091
C     1.9239563194     -3.9710199791     -0.9516488074
C     -0.1967179987     -4.7506128286     0.8005167452
C     -1.3620238682     -4.3538872417     1.5145185661
C     -2.3721236742     -2.6368571499     2.8625264012
C     -1.248958537     -3.4424649399     2.6041051958
C     0.554274607     2.7039096926     3.2124275701
C     0.4651176412     1.3261947093     3.5207654683
C     1.5459772853     -0.9207695005     3.3965617537
C     -0.854395399     0.7370574816     3.524840656
C     -0.9429359282     -0.7174567255     3.5803892467
C     0.2346515479     -1.5436998421     3.4530181318
C     0.0650275311     -2.9374527276     2.9999797729
C     1.1734475043     -3.6023576583     2.4534887057
C     -2.2125960588     -1.3086295397     3.3736999215
C     -0.4397104585     -4.6151509301     -0.6101009693
C     0.5488314341     -4.1189573579     -1.4674859551
C     2.8912371288     -3.1242777654     -1.6431216055
C     2.4533764175     -2.5217082241     -2.8331011971
C     2.9945490591     -1.2733035241     -3.2838598637
C     4.0629978063     -0.7018872859     -2.6397734556
C     -1.835131359     -4.2880414095     -0.7690652362
C     -3.5352924706     -2.8004864591     -1.6001635605
C     -2.2895002345     -3.4465799913     -1.8038632938
C     -1.2967500688     -2.8487691315     -2.6976351163
C     0.0833909194     -3.2822473974     -2.5749096027
C     1.0633094155     -2.5367114807     -3.2332465103
C     -3.5412476626     -2.6527255827     2.0380733351
C     -3.5389366555     -3.3697300754     0.8037529982
C     -2.4206420523     -4.1963367695     0.5483595322
C     -4.1723403668     -2.7713422072     -0.3200019364
C     -3.8581156975     -1.5860139729     -2.2788974905
C     -2.9052335122     -0.9622850877     -3.1235884095
C     -1.6016062008     -1.5840956253     -3.3309036938
C     -0.5200642571     -0.7361088151     -3.782570697
C     0.760578479     -1.2736007956     -3.8182804896
C     -3.0358576613     0.429034091     -3.3197198207
C     -4.7348518635     -0.8156195398     -1.4485846445
C     -4.9306196225     1.3296390914     -0.3051871527
C     -4.7410286949     0.6110851306     -1.5161561755
C     -3.9521197743     1.2166852914     -2.5449434631
C     -4.1732642792     -1.3657660571     2.1317975403
C     -4.894357088     0.6309759127     0.9533310869
C     -4.8563597144     -0.8010927351     1.0228789918
C     -4.8750282955     -1.5197933567     -0.2053490427
C     -0.5721946758     3.448570754     2.7605170024
C     -1.8386349714     2.8774334584     2.6445679996
C     -2.01154209     1.5214732741     3.1305081389
C     -4.1705139846     1.4374761383     1.8800943333
C     -3.2618009595     0.8499339288     2.8052748546
C     -3.3530563641     -0.5432313772     2.9771787906
C     -2.195473122     4.296450905     0.6155688635
C     -0.8200139476     4.7066675659     0.6763456304
C     -0.0706509462     4.4092429179     1.7824639009
C     -3.8661067009     2.6878194418     1.2374974235
C     -2.7405655816     3.4352943913     1.6109502516
C     -3.3702499498     2.5122742639     -2.3654572929
C     -4.318741319     2.6175958498     -0.1172509023
C     -3.55616604     3.2335571213     -1.1528051311
C     -2.5159575041     4.102062378     -0.7601755081


