100

 C     -4.0103788894     2.2397291113     -2.1605655679
C     -4.6602193917     1.0499011979     -1.9525627932
C     -4.1516161219     -0.1487963368     -2.5472455881
C     -2.7614202647     -2.5790646023     -2.549130374
C     1.3664435397     -2.6867864452     -3.0905180991
C     -0.0190374462     -2.6883928633     -3.008739924
C     -0.7389990021     -1.4863113118     -3.3996860643
C     -2.1635028561     -1.4577121477     -3.1811348914
C     -2.8767236016     -0.1946559188     -3.1801918708
C     -0.0023247895     -0.253271032     -3.6059619846
C     -2.1269149526     1.0451833936     -3.3356859121
C     -2.7601037204     2.2416868194     -2.8986570672
C     -4.9920956786     1.5772759753     0.4221789491
C     -4.3018939483     2.8410934059     0.2106062391
C     -5.2104049923     0.7186138091     -0.6367438275
C     -3.8868315387     3.1935062308     -1.0807726593
C     -2.6475365272     3.855554766     -1.2322106231
C     -1.8670420377     4.2206006097     -0.1001812285
C     -0.5401188703     4.5452296265     -0.3822735041
C     2.0915171781     -1.536799824     -3.5121700724
C     1.4447087137     -0.2796564028     -3.6204253999
C     -0.6766764359     1.0219227773     -3.4674472041
C     1.5418061979     2.1371848223     -2.9457244035
C     0.1054593624     2.20806781     -3.1246859047
C     -0.5943280178     3.3418224794     -2.5559174892
C     -1.9885855424     3.3260489809     -2.4205201611
C     0.0829092988     4.2004444897     -1.6567003394
C     -3.5543864587     -0.7668983623     2.8997167493
C     -4.4503167415     -0.3730545027     1.8841136107
C     -4.5816744713     1.0316632673     1.6896304926
C     -2.1846352196     3.6904507039     1.2176015467
C     -3.4435357036     3.055250525     1.3341442802
C     -3.6197051134     1.9498399986     2.2353732834
C     -1.0977178201     3.335159144     2.127015303
C     -2.5528819806     1.5140692234     3.0546112703
C     -2.6388460397     0.1692897921     3.4831769609
C     -4.7001795694     -1.2948047937     0.7697624953
C     -5.0931661874     -0.7108251556     -0.4586263669
C     -2.9199807693     -2.055110605     2.9014793795
C     -3.1370700392     -2.9901611901     1.8509838844
C     -4.018908352     -2.6003464151     0.7416293645
C     -2.0922177136     -3.9230531928     1.6324982981
C     -1.6477384583     -1.9253013781     3.5346753591
C     2.1803573892     -0.2249378611     3.6762289853
C     0.9360961767     -0.8262198586     3.7538882304
C     0.7898392322     -2.2014314294     3.2725481784
C     -0.5432360868     -2.7405200823     3.1804628696
C     -0.8115770812     -3.8023125897     2.2918619766
C     1.2118423913     2.0400141311     3.3174122158
C     -0.2158998666     0.0666061362     3.8677393114
C     -1.4704692319     -0.5408619746     3.8685935457
C     2.3287353363     1.2019861738     3.5381676121
C     -0.1078810889     1.4833200059     3.522070389
C     0.4508233678     4.5333955105     0.6232746718
C     0.2286940231     3.8215165938     1.8447660048
C     -1.2651574688     2.1842488137     3.0167983572
C     1.3937814637     3.2217203164     2.4916312818
C     2.6781416153     3.4382289557     1.9235832489
C     -1.8302089322     -4.442032674     0.3187750634
C     -2.6220644557     -4.0417179443     -0.7425676271
C     -3.7603225187     -3.190420771     -0.5193543405
C     -3.9270066184     -2.4284408129     -1.7298989249
C     -4.5856502133     -1.2291094707     -1.704086886
C     -0.4223258128     -4.5885012106     0.1394676246
C     -1.987445707     -3.647011304     -1.9690605009
C     -0.6043288067     -3.6889389303     -2.1341947901
C     0.2096402448     -4.2716615247     -1.0719684985
C     3.5847881706     -3.2570754313     0.2421906688
C     2.3182767851     -3.8584598793     0.2501711426
C     1.6323910311     -4.0309740297     -1.0294934343
C     2.2064223188     -3.4604071669     -2.1793838985
C     3.2980895632     -0.8714732031     3.0512945673
C     3.1290405729     -2.1199307813     2.4100636428
C     1.853786675     -2.7962301059     2.5031887366
C     1.5195288775     -3.7690516464     1.4715321707
C     0.2120293751     -4.248202202     1.4031969313
C     3.9993454737     -2.3827836142     1.3237339889
C     4.9696367856     -1.6003114906     -0.633584473
C     4.2006631671     -2.7861149664     -0.9624778305
C     3.4849500203     -2.8448400255     -2.1546291507
C     4.9885107914     -0.5240504089     -1.507465202
C     4.1709759554     0.1374806313     2.5409445363
C     4.8740736262     -0.0476916096     1.3252385479
C     4.8573673745     -1.3693612241     0.7910107008
C     4.4290445179     2.340341204     0.7878297898
C     3.7539748411     2.5092422767     2.0711419391
C     3.5886329     1.414966924     2.8910720291
C     4.9644557098     0.8220524664     -0.9995129284
C     4.9730144043     1.0878968004     0.3979652893
C     1.710802847     4.4455251745     -0.0595471796
C     4.161729631     1.6107690076     -1.8952320305
C     3.5027415349     2.7746063737     -1.4784896003
C     3.788254323     3.2061381811     -0.1458441374
C     2.8053772244     3.9647507575     0.5817719923
C     3.433914947     -1.6747569761     -3.018815728
C     4.1640547625     -0.5543465381     -2.7064370259
C     3.5701397512     0.7431411872     -2.8799309102
C     2.2235479891     0.9082458364     -3.2934448473
C     2.2315403682     3.1077357558     -2.1061124448
C     1.4584513067     4.096854044     -1.452431997


