100

 C     -3.3579088246     -0.9681135171     2.8340829178
C     -4.4317852801     -0.3254627737     2.2028495109
C     -4.5848964908     1.0993483734     2.2415636096
C     -2.3626915356     -0.1577860179     3.5452063002
C     -2.5213402509     1.2343805413     3.5425242367
C     -3.6191698476     1.8701802888     2.8850801516
C     0.4428967338     -2.5772171201     3.2997931711
C     -0.8346640769     -2.0429873519     3.5608162699
C     -1.0202233073     -0.6682297205     3.7696455496
C     1.5948205062     -1.7819981402     3.2973591329
C     1.4563388852     -0.3673424833     3.5631873065
C     0.1480661206     0.1897670888     3.7486072626
C     -0.0561001425     1.6047210959     3.4670153822
C     -1.3591832779     2.0912454181     3.4187617201
C     3.7961805341     -0.0743975553     2.8668067127
C     2.5753933986     0.5116150925     3.2497999256
C     3.3952429324     -3.3285409289     0.4446566652
C     2.5322262285     -3.3195617384     1.5492906489
C     2.7424184623     -2.3009466492     2.5749927533
C     3.8686530594     -1.4758356992     2.4853931109
C     -4.6407015052     2.6857102005     0.3670830576
C     -3.5875972644     3.4448976181     1.0055882582
C     -5.1421244857     1.5375783938     0.9801401757
C     -3.1210948485     3.0764047511     2.2587243476
C     -1.7214695161     3.187961417     2.5601465135
C     1.5363152069     3.7790522555     0.8375037365
C     2.8901543695     3.4954624515     1.0574888447
C     0.5927142452     3.3746245497     1.8501358511
C     -0.793629127     3.6720363926     1.6244237406
C     -1.2663640713     3.959319274     0.2717576829
C     -2.6346902147     3.8416935643     -0.0048817087
C     3.2928820735     2.5814541056     2.0996015463
C     0.9731453642     2.3828886308     2.8179828619
C     2.3245356208     1.8931536379     2.8559827541
C     -5.2404179584     0.3833365584     -1.195153532
C     -4.6791140693     1.5713609578     -1.8253764717
C     -5.4014299933     0.352484655     0.1869264292
C     -4.3538431819     2.6709461869     -1.0545246799
C     -2.9859139767     -1.0408527532     -3.5622379239
C     -3.9832299203     -0.2793779999     -3.0203990741
C     -3.8038379814     1.1464172163     -2.8853222982
C     -3.0906583278     3.3297293988     -1.2731880914
C     -0.7824912014     3.2000829091     -2.0493913397
C     -2.1700087397     2.8665524255     -2.2362809294
C     -2.5310232019     1.7378534807     -3.0866406879
C     1.5403103456     2.8838187605     -2.6865084975
C     0.2093919926     2.5443949886     -2.8787335644
C     -0.0858650851     1.2846100296     -3.5291644496
C     -1.4692428591     0.9161695509     -3.6662650244
C     -1.7473073716     -0.4321699503     -3.9573421392
C     1.0612009396     3.938395774     -0.5324050742
C     -0.3434853695     3.8169668408     -0.8269781461
C     1.9696275498     3.6876339172     -1.5710754258
C     -4.4131736272     -1.9264305131     0.2702273829
C     -4.3402892028     -1.9345506953     -1.1948843311
C     -4.950047981     -0.799747432     0.9156504218
C     -4.7511769853     -0.7678240525     -1.8840781636
C     -3.3587870984     -2.7959335296     -1.8531872358
C     -2.6352976661     -3.7195098647     -1.0712990853
C     -2.7153125853     -2.3553980365     -3.042268889
C     -2.7820919589     -3.75983381     0.3803733993
C     -3.5197326216     -2.7746218094     1.0572760084
C     -3.003603714     -2.2921162808     2.3463104342
C     -1.5728584155     -4.2945804909     0.9167000875
C     -1.1147923352     -3.8726556174     2.1598483756
C     -1.8276811889     -2.8513136458     2.8563194155
C     -0.6319082305     -4.4623683033     -0.1493691411
C     0.2825472408     -3.7018071956     2.3797173439
C     1.2233896039     -3.9166184339     1.3682910622
C     0.7334115556     -4.2431436329     0.0256824455
C     -1.3327275783     -2.6168350408     -3.2726129206
C     -0.5790209279     -3.4444912637     -2.4225935213
C     -1.2976248625     -4.091180058     -1.3835439075
C     0.8419256816     -3.2059935363     -2.2823764435
C     1.5037455664     -3.7727665437     -1.1249338295
C     2.8305237652     -3.4389141011     -0.9003611973
C     -0.7317520397     -1.4307504     -3.8362923382
C     0.6065120247     -1.1096252905     -3.6236361963
C     1.4622777832     -2.0938602927     -2.9658095575
C     3.300092683     -0.3697675444     -2.9254476856
C     2.8209333831     -1.7280883166     -2.6706335171
C     3.5318673515     -2.5270162262     -1.7425716145
C     4.495420105     0.0546985613     -2.2859762917
C     3.7667989338     2.3828503642     -2.2712415151
C     2.6151374898     1.9954336388     -3.0349532988
C     2.3375609545     0.6480510841     -3.3389635839
C     0.9662200871     0.2934234726     -3.628466802
C     4.7038570256     1.4326524778     -1.9092562373
C     4.8397550729     2.3981067839     0.3496745448
C     3.8341798416     3.3662687285     -0.0270168797
C     3.3525495607     3.4026438662     -1.3290487382
C     5.3116829012     1.4746195273     -0.5880230368
C     5.3639002478     -0.289205412     1.1328471997
C     4.7656986496     0.6396214373     2.0724088276
C     4.5189292179     1.9502645033     1.6908376025
C     5.579464123     0.1127592868     -0.1881466089
C     4.6538325469     -2.014276939     -0.9992010018
C     4.5332227243     -2.4773281915     0.3694611799
C     4.816103562     -1.5972995158     1.4151187533
C     5.1396380717     -0.7550901085     -1.2723999953


