100

 C     3.5579433619     -3.1152776965     -1.1118533748
C     3.5623791754     -2.1509101209     -2.1551521511
C     4.3748257668     -1.0049060582     -1.9618713821
C     4.0634699959     0.2174869118     -2.6031934937
C     2.9855006758     0.2755587104     -3.4866770306
C     2.4811135763     -3.9912244206     -0.9464153728
C     1.2919274668     -3.9294870323     -1.7520250726
C     1.2178331161     -2.9268581359     -2.776650867
C     2.3727330574     -2.0720511665     -3.0089856464
C     2.1571580658     -0.863412013     -3.69772974
C     -1.2346040317     -3.1513639096     -2.7971211994
C     -0.1060994913     -2.4737284426     -3.2391501099
C     -1.15620089     -4.1382140223     -1.7520185294
C     0.0745492601     -4.4694861712     -1.1659412327
C     0.0235191566     -4.7556854826     0.2374313485
C     3.4751864611     2.4288290101     -1.6655483649
C     2.3833567248     2.5217332981     -2.6585715479
C     4.3027452912     1.3024231852     -1.6963208558
C     2.176036217     1.4496435159     -3.5326296092
C     -0.0810048879     3.0547888114     -2.9673905055
C     1.250534996     3.4031263816     -2.4425697022
C     1.3369223492     4.2785332275     -1.3507212531
C     -1.1998812938     3.690674942     -2.4282175522
C     -1.0808349767     4.5177469966     -1.2607582518
C     0.1524973533     4.7655771443     -0.7122713304
C     -0.3278676434     -1.1158032585     -3.7208193717
C     0.8205873704     -0.3715383255     -3.9974659727
C     0.8301908714     1.0349989613     -3.9218522011
C     -1.5734803681     1.0378556907     -3.4315547802
C     -0.3155091242     1.7572168048     -3.5783324013
C     -1.5793825754     -0.4016551867     -3.5075469195
C     2.354474308     4.1187064375     -0.3179378541
C     3.3781923479     3.1678968345     -0.404401623
C     3.9170056369     2.5971181542     0.8364437626
C     1.7142439542     4.4256370888     0.9326903793
C     2.1107427433     3.7694556911     2.0728561734
C     3.2693852441     2.9363462402     2.0509811116
C     0.3212113757     4.6902399698     0.7151108419
C     4.6373700682     1.3264037295     0.7932845879
C     4.8744077438     0.7296483329     -0.4793903213
C     3.0645354271     1.9471211687     3.0832157849
C     3.6920218971     0.7340830775     3.0099713679
C     4.5741354623     0.4469564266     1.9066194398
C     1.6977018156     2.0113231906     3.5195665038
C     -1.2282180097     -0.3121549373     3.5550936735
C     -2.6013279198     -0.2382254597     3.3295837885
C     -0.4839523997     0.9304466477     3.5627753693
C     0.9440872901     0.8393419864     3.7340705125
C     1.6206421964     -0.4555070437     3.6749049391
C     3.0016722434     -0.4642242151     3.3889015446
C     -0.2595151453     3.2526839963     2.6356952205
C     1.1074824745     3.1805527514     2.9335950747
C     -4.0969451783     2.6469873055     0.8586343112
C     -2.9553911412     3.0434618713     1.6012779026
C     -2.4840495275     2.1452208377     2.6568798398
C     -1.097169287     2.1494370439     3.0689517116
C     -3.2388970577     0.988307125     2.9374786691
C     -0.6864183148     4.1207276924     1.5323918541
C     -2.2005225546     4.2700946874     -0.4041849901
C     -2.0144526793     3.9564187432     0.9671910326
C     4.579061886     -0.9765915028     1.7366283589
C     4.7612207328     -1.5537054024     0.4550475273
C     4.9370268233     -0.6720789711     -0.6459864383
C     4.1359369342     -2.8022928101     0.2090869566
C     3.6268384006     -1.542578943     2.661873742
C     2.9314829628     -2.7184235763     2.3779203753
C     3.3311955831     -3.4206799795     1.1860953552
C     1.1810890473     -4.5176463618     1.0599865655
C     2.3808816574     -4.2470117479     0.4847754642
C     -1.3425656989     -2.6916107626     2.7982500915
C     1.5544729293     -2.8252842088     2.8559666935
C     -0.6377642153     -3.7719892312     2.2443759643
C     0.7638466964     -3.8451954264     2.2851765178
C     -0.5694753506     -1.6079122529     3.3832579213
C     0.8666957248     -1.6800015231     3.4239179432
C     -4.4962829746     -0.7978639035     2.0967343473
C     -3.3671491768     -1.3438277489     2.7863156271
C     -2.7267293872     -2.5156755468     2.3699484429
C     -4.9283387382     -1.3984836713     0.916672326
C     -4.2974290216     -2.596820935     0.4654255365
C     -3.2384440928     -3.2007011816     1.1792985996
C     -5.1622197185     0.8079215911     -0.1324701737
C     -4.8130374266     1.4376811225     1.1359313751
C     -4.4258318199     0.6424571116     2.1998635975
C     -5.2018679809     -0.5617385393     -0.2419456659
C     -3.1475376506     3.5400996815     -1.1971642127
C     -4.5726671793     1.5850790257     -1.1876685816
C     -4.1130971502     2.8012887261     -0.5811524881
C     -3.2561078599     -3.1715267668     -1.6841733362
C     -2.5312680869     -2.512815185     -2.7332413762
C     -2.7248753989     -1.1437562287     -2.997469654
C     -4.2368367178     -2.5137335136     -0.9904161938
C     -4.6271718185     -1.1967660229     -1.4012322677
C     -3.8396906801     -0.465836487     -2.3393987845
C     -3.8216610865     0.9801472327     -2.2362035517
C     -2.7053977342     1.7261989415     -2.8182135382
C     -2.4924822866     3.0486940547     -2.3839447015
C     -1.1094249462     -4.419071632     1.0103912384
C     -2.3388215359     -4.0651879842     0.427379415
C     -2.3659516849     -4.062036964     -0.992755153


