100

 C     2.3828852307     -3.9484850519     -0.7461685052
C     2.7780528624     -3.1888838512     -1.8592366335
C     3.9388586619     -2.3851809366     -1.6725245784
C     4.1428298314     -1.1873519498     -2.4514042005
C     3.2317944945     -0.8639030599     -3.4207090942
C     1.0344311082     -4.4324729129     -0.6201429702
C     -0.0009099696     -4.0304038762     -1.4911614719
C     0.3460296582     -3.1283326342     -2.5952771035
C     1.7438332631     -2.7927551564     -2.8139311638
C     2.0446460236     -1.6716144947     -3.6197360266
C     -2.0797566435     -2.462144242     -2.7480154168
C     -0.6889253199     -2.2872419452     -3.1509212224
C     -0.3213831208     -1.0422675123     -3.800945543
C     1.0264963842     -0.7905694122     -4.046407508
C     -2.9927212633     -1.4336060049     -3.0746458151
C     -2.4336677017     -3.3764454793     -1.674748362
C     -1.3736062023     -4.1052636495     -0.9963676093
C     -3.652144819     -3.1474239933     -0.9751594294
C     2.658575853     2.7085616533     -2.6838264811
C     3.4325259546     1.5431239688     -2.79602045
C     2.8980745014     0.5209416008     -3.6386114088
C     1.5460758315     0.5640321062     -4.075985988
C     -2.533268736     -0.1239216153     -3.4916953011
C     -1.2075377646     0.1173931956     -3.7832825801
C     -0.7055001575     1.4722286469     -3.6139834188
C     0.7127046954     1.6705226447     -3.8026427628
C     1.3365653335     2.7929374168     -3.2252013454
C     4.3102642554     1.1866886502     -1.6835855629
C     4.732194134     -0.1597769109     -1.6092669105
C     4.9963852624     -0.7915428159     -0.3547167479
C     4.2401971919     1.9622019789     -0.4374987346
C     4.5985031334     1.3285279569     0.7660626336
C     4.9455908799     -0.0641835241     0.8120390829
C     1.4650815505     4.2563947838     -1.4488150012
C     2.7013303455     3.5467301163     -1.5018615405
C     3.3582993918     3.1224158712     -0.3295914022
C     0.9542521701     4.6750384304     -0.2416478362
C     1.608863011     4.2906172946     0.9728890212
C     2.7544277897     3.478704125     0.9607459121
C     0.571964957     3.72563711     -2.4467336961
C     -0.8022903438     3.5497363209     -2.2083075175
C     -1.4837135848     2.4371865908     -2.8732648169
C     2.8139755215     0.2269207648     3.6567030289
C     4.3978003577     -0.6480329437     2.0249918375
C     3.880585149     0.438442044     2.7965848513
C     2.9552428012     2.6307326508     2.1259043281
C     3.9484855227     1.648355181     2.0296333216
C     1.8224618224     1.2351744267     3.8202142324
C     1.8635983448     2.4306179666     3.0911174445
C     2.1895110607     -1.05899279     3.7162375252
C     2.6100981682     -2.1193577732     2.9043342911
C     3.7687527412     -1.9108838874     2.0191226248
C     3.8728888573     -2.6980863298     0.7910420329
C     4.4736450402     -2.143932932     -0.3695940039
C     2.9084740811     -3.6958912244     0.5600022462
C     0.2157314639     -2.9673245258     3.0481425904
C     1.6128579149     -3.1412244566     2.6107455731
C     1.8663053347     -3.9895008046     1.5174961547
C     -0.7742456999     -3.7478144846     2.4430711239
C     -0.4821087623     -4.537039547     1.2747122352
C     0.7961619818     -4.5946617506     0.7888397366
C     -0.6826831897     1.1246550627     3.802959749
C     0.5641686875     0.5575125713     4.1025117283
C     0.7845329923     -0.8322850313     4.0301128719
C     -1.5731741456     -1.187481842     3.429270299
C     -0.2320896835     -1.7161561185     3.6377663841
C     -1.7996928041     0.2395862257     3.5159464767
C     -0.6545268337     2.5125434749     3.3721853371
C     0.570249475     4.1565854682     1.9837013657
C     0.6085585416     3.1405142986     2.9494108306
C     -1.8517272658     3.0276235212     2.8738927067
C     -1.5770843343     -4.4499919551     0.3663725035
C     -2.6605109918     -3.8774067665     1.1177008075
C     -4.3532849008     -2.1501700853     1.0429320255
C     -3.6984454231     -3.292727745     0.4644811864
C     -3.7215322299     2.7393209874     1.5535355219
C     -3.013544945     2.1989301057     2.6905511325
C     -3.0114454792     0.8119880824     2.9399611996
C     -4.5393083572     1.9466082807     0.8066593821
C     -4.7919457508     0.5927314456     1.2208531178
C     -3.972253066     -0.0189095022     2.2128469326
C     -3.7448363774     -1.4460725745     2.1207320218
C     -2.5597094839     -2.0257611942     2.7592592858
C     -2.1372597496     -3.3011417006     2.3356078242
C     -0.6681637149     4.5381647884     1.3723099569
C     -2.9010905098     3.7223614304     0.9066196823
C     -1.8498636489     4.0207971821     1.8316437013
C     -4.4509506454     0.2022632181     -2.2605209851
C     -3.3788234296     0.8845247628     -2.9290233947
C     -2.8357704473     2.1085926038     -2.4690399521
C     -4.9766302708     0.7481635001     -1.1052386617
C     -4.4870979191     2.0141712643     -0.6364800263
C     -3.4361724637     2.7181174503     -1.2822523242
C     -2.6566123612     3.6612393723     -0.4902262086
C     -1.365734088     4.1253143187     -0.9803389339
C     -0.4668364583     4.700269919     -0.0460307288
C     -4.9982772431     -1.469795096     -0.0435501352
C     -4.5229565531     -2.0591624963     -1.290070671
C     -4.2127756807     -1.2272344479     -2.3554268929
C     -5.2172690858     -0.1122817972     0.0460392154


