100

 C     -3.3423273445     2.3476790963     2.2547785427
C     -3.8853346168     1.0513089015     2.3516237234
C     -4.8270283244     0.6794799003     1.3510666237
C     -5.0646320002     -0.6972966566     1.0425218834
C     -4.4432900026     -1.6864675065     1.7739151452
C     -2.041655216     2.6502066537     2.7787435454
C     -1.1933108592     1.6586339101     3.3102842907
C     -1.7157332048     0.3035794104     3.436218523
C     -3.0829366668     0.0221391233     3.0071719467
C     -3.4445044269     -1.3194067681     2.7592437207
C     0.6090569664     -0.5052031513     3.817615452
C     -0.7861869468     -0.788096457     3.5948302896
C     -1.1550111015     -2.1289524339     3.172630555
C     -2.4717576741     -2.3581164144     2.773775596
C     1.5184896145     -1.5804074594     3.6920219656
C     1.1220623194     0.8536948835     3.700567399
C     0.2449947307     1.9268540841     3.3191079023
C     2.5135257731     1.0278011139     3.5040669165
C     -4.6636906564     -1.9322568881     -1.044517667
C     -4.1456253984     -3.0395467325     -0.2623054493
C     -5.159775456     -0.8184695275     -0.4111805803
C     -4.0043540467     -2.908628689     1.1246937796
C     -0.8517512679     -4.4377357829     -1.1623818794
C     -3.0953528902     -3.6478160032     -1.0016019083
C     -1.9855665119     -4.2372866466     -0.3554940112
C     -2.793300404     -3.3375187273     1.7630056336
C     1.1540615618     -2.824818144     3.0829722543
C     -0.1639574053     -3.094351321     2.7290645025
C     -0.4245800523     -3.9831528764     1.5989309846
C     -1.7714628567     -4.0252048536     1.0673339138
C     0.6877413176     -4.40175029     0.7743021815
C     0.4203559483     -4.648174482     -0.6104690817
C     -3.5593560048     1.9281013323     -2.2983696723
C     -4.1177793497     0.6486781521     -2.1203516918
C     -4.9562701468     0.4772133841     -0.978702503
C     -2.8977392901     -2.8587307379     -2.2098709093
C     -3.8003973369     -1.7723899899     -2.202187563
C     -3.4036365984     -0.4955741361     -2.6819784992
C     -0.6959209474     -3.7260543279     -2.4312208274
C     -1.6335439484     -2.7501057166     -2.8242819714
C     -2.0661220871     -0.3303286622     -3.2540352662
C     -4.8784101221     1.4188509199     0.1116203751
C     -3.6801877118     2.964881664     -1.3133338597
C     -4.2245031646     2.6675886521     -0.032379553
C     -2.5491170623     3.8350030548     -1.443808441
C     -1.9460143462     4.4235309214     -0.2948637304
C     -0.5685095878     4.7407834122     -0.3887770045
C     -1.7232058054     3.3205177426     -2.4940148372
C     0.520109427     2.4886154014     -3.1127257321
C     -0.3294838319     3.5203026344     -2.5265504814
C     0.2024800417     4.4001657115     -1.5506717394
C     2.7392010078     1.4801023725     -3.2294349274
C     1.94367588     2.5842809178     -2.8832830555
C     -1.1725737675     -1.4760086729     -3.3412692182
C     -1.5110856027     1.0055489991     -3.3665852326
C     -2.3094752989     2.1001224931     -2.9660215936
C     0.6692527332     -3.571418463     -2.6931812922
C     1.1739011338     -2.3772762557     -3.2606110887
C     0.2436797186     -1.2945725622     -3.5624770204
C     0.7669566078     0.0630376148     -3.6980480219
C     -0.073668242     1.2192749394     -3.5079623686
C     2.1632164771     0.2493585472     -3.630790977
C     -3.5656431245     3.1868413876     1.120848937
C     -2.437539042     4.0667091664     0.9903649829
C     0.3054428818     4.6319134149     0.7441294704
C     -0.1298256994     3.9724149802     1.9213646843
C     -1.5198443767     3.7675671072     2.0497810975
C     2.1886048681     3.1253258463     2.2618150145
C     0.7834643043     3.0848112911     2.6283015765
C     3.0300019537     2.1244736631     2.7676123967
C     1.6396402681     4.449502294     0.2598669854
C     3.7134579856     3.2726708065     0.2873313066
C     2.6129963632     3.7869535744     1.0225068618
C     2.4774633155     3.4851149263     -1.8550103781
C     1.5752818052     4.304594219     -1.1605702312
C     3.6462278493     3.1211440739     -1.1309732646
C     4.9024184826     1.307802953     -0.2672852691
C     4.5073022774     2.1778483238     0.8035398999
C     4.2057801185     1.6517538209     2.0365742844
C     4.9370468519     -0.0976280932     -0.1129650361
C     4.6881809052     -0.6557093562     1.2204522973
C     4.3632100339     0.2490592821     2.262675899
C     4.130945162     -0.2541283703     -2.4741524989
C     3.9780472007     1.1696959487     -2.5345047091
C     4.3944083749     1.932913321     -1.474657478
C     4.2219083692     -2.2405450679     -1.1394401908
C     4.6243705653     -0.89916874     -1.2990431417
C     1.3829441893     -4.2635283096     -1.6264574297
C     2.6436632414     -3.8961117397     -1.285630009
C     3.3126801346     -2.8627779323     -2.0319640803
C     2.5861926598     -2.1055915004     -3.0057940454
C     3.0623216288     -0.8175278252     -3.2356767193
C     2.2740791709     -3.3107959777     2.3114298889
C     2.0550880387     -4.0337713292     1.1259794212
C     3.0378816442     -3.8341677737     0.1051529609
C     3.3921759602     -0.0963279115     3.2780212085
C     2.9022422501     -1.3662746816     3.3734867047
C     4.1944738827     -2.0311782306     1.3554465788
C     3.3480343994     -2.3770460144     2.4469414084
C     4.0308694306     -2.8267101551     0.1948626251


