100

 C     -2.809486906     -3.2220247159     1.8058646573
C     -3.6511936911     -2.7771147495     0.7729839438
C     -4.4344326534     -1.6370996975     1.0777789125
C     -4.9912921495     -0.8375558827     0.045760341
C     -4.6932415078     -1.1413781746     -1.2821961945
C     -1.7073964418     -4.054467001     1.5482412219
C     -1.2533163937     -4.3087198638     0.2191686908
C     -2.0067287111     -3.7386238057     -0.8771226577
C     -3.2553443831     -3.0597051734     -0.6006193192
C     -3.8027093052     -2.2192149876     -1.6030246439
C     0.008385407     -3.855376905     -2.2952123423
C     -1.3168491867     -3.4447057664     -2.1377973579
C     0.7597615515     -4.4242668469     -1.1985938445
C     0.1660968975     -4.6146008268     0.0582230328
C     1.052191552     -4.5129340702     1.169105693
C     -4.7867529019     1.5625327741     -0.4169626076
C     -4.4939150706     1.2520468115     -1.8086623523
C     -4.9898542665     0.5482559456     0.4954580098
C     -4.4328653352     -0.0609423013     -2.2212859506
C     -3.3765104477     -0.4735055141     -3.100378084
C     -3.4945142613     2.1861143544     -2.2561539068
C     -2.4457122687     1.8126241037     -3.1110529875
C     -2.3955251659     0.4175162939     -3.5656451176
C     -1.7580936008     -2.3587003736     -3.0024594537
C     -3.0262721774     -1.8247380734     -2.751989812
C     0.9169254379     -3.1623403405     -3.15947173
C     0.5626133241     -1.9741966208     -3.8496514002
C     -0.8188663567     -1.5553490242     -3.7682712833
C     -1.1511779603     -0.1638555818     -4.0210003908
C     -0.1041227804     0.7342796044     -4.288581287
C     -2.3735760382     3.6882785826     1.3889360461
C     -3.4337366525     2.78584479     1.266168183
C     -4.0011758214     2.6939967213     -0.0389169054
C     -3.2580663499     3.1266075963     -1.192768116
C     -0.139806712     2.1041691878     -3.7928332839
C     -1.2244286972     2.6083082147     -3.0774795208
C     -0.9658419734     3.5872495455     -2.0235070528
C     -2.0284646604     3.812606237     -1.0712337276
C     -1.7101912732     4.2578697864     0.2286460618
C     -3.48434242     1.6517817715     2.1795770803
C     -4.3401056554     0.5872110607     1.7894424535
C     -0.2531007803     4.2876451188     1.9975810822
C     -1.429956851     3.5785928121     2.4371707624
C     -1.3434402657     2.4020720968     3.2392671449
C     0.9572487766     3.9683814753     2.5252949906
C     2.1370761096     3.9806083217     1.6797138064
C     3.0117330814     3.5868835093     -0.5104160268
C     2.0107276758     4.187270141     0.2779105052
C     1.1935144584     2.521905693     -3.5428972342
C     1.4951960435     3.3876387487     -2.4574266641
C     0.396439996     3.9310878289     -1.6632131621
C     0.6895062671     4.4141173933     -0.3158837049
C     -0.3865085687     4.5882333206     0.5850813127
C     2.7869070985     3.2575096697     -1.8817877525
C     1.0574373161     2.9258247629     3.5103741726
C     -0.0416730646     2.0606950813     3.7938560571
C     -2.3667476324     1.3885255999     3.0816709106
C     -0.7604474758     -0.3525511216     3.9857775218
C     -2.0766759561     0.0156595149     3.4902949726
C     -2.9549774082     -1.0363288489     3.0153486564
C     -4.0430341416     -0.7443296498     2.1591480405
C     -2.4915036177     -2.3674810429     2.949384517
C     2.3872890932     2.4271064925     3.3783439978
C     2.6670396888     1.1353021     3.7200558135
C     1.6134048679     0.2900394336     4.2024621583
C     0.2495041574     0.6843661363     4.1545578679
C     -0.3286176038     -1.7464984893     3.9344940517
C     -1.2251427884     -2.7235105709     3.4345983507
C     3.9275141428     2.6251015198     0.0324812594
C     3.8648791102     2.2158060824     1.3791947731
C     3.0351244118     3.0126743516     2.2154027333
C     2.0195330984     -1.0527177771     3.9322443712
C     1.0887171228     -2.0833415758     3.8381732937
C     1.521964738     -3.2195292552     3.0863216363
C     0.5618882212     -4.0815680554     2.4596188693
C     -0.7686078827     -3.8502961987     2.6383112179
C     3.2036120057     -1.0147710266     3.1051926201
C     4.0013102412     -1.5678728387     0.8272278992
C     3.435634694     -1.9830230048     2.1022609341
C     2.6359202722     -3.1455555344     2.2040429213
C     3.9877508478     -1.9218612255     -1.6075775808
C     3.7883465641     -2.4512019295     -0.3241257883
C     4.29227192     1.7150377145     -1.0057699243
C     4.3199658854     -0.55708705     -1.8198392816
C     4.4952799378     0.3358811853     -0.7319152212
C     4.3395756926     -0.1738805663     0.6296303841
C     4.0968764129     0.8010373936     1.699720338
C     3.5821896066     0.3394897441     2.9268360641
C     2.0607252709     1.4369806742     -3.9094349525
C     3.6883179289     -0.1301198479     -3.0477570594
C     3.2709643076     1.2125438697     -3.2132964628
C     3.6335911882     2.1433196123     -2.2051429178
C     2.2299431064     -3.3301000785     -2.5989775326
C     3.1805848417     -2.3475038565     -2.7467253843
C     2.9273312211     -1.2243900539     -3.5841422606
C     1.6242303639     -1.0135618069     -4.1292277908
C     1.2503695836     0.3333214786     -4.361099367
C     2.3518885994     -3.9593092204     1.03096541
C     2.9003256474     -3.6167704084     -0.2185348269
C     2.1225684284     -4.0192249275     -1.3443135196


