100

 C     3.7058961284     -1.350871031     -2.2770460658
C     4.6274699237     -0.4428699344     -1.6816362926
C     1.4129131541     -2.9302740557     -2.8693952236
C     1.4580356327     -1.6310255011     -3.3765350973
C     2.6452526781     -0.815482462     -3.0997457687
C     2.5523035455     0.6193902498     -3.2566036218
C     1.3717459777     1.1434353581     -3.8005699783
C     0.1481982024     -3.5704389264     -2.5612407195
C     -1.0967326334     -2.9349538297     -2.7194179607
C     -1.108183609     -1.6219703237     -3.3600357905
C     0.1770231195     -1.0369235856     -3.7360262805
C     0.2066484629     0.3190236215     -4.0726554922
C     -3.4434148925     -1.2632983992     -2.4792382927
C     -2.2839165385     -0.7938462983     -3.2597931693
C     -2.1879166454     0.6219924435     -3.5787002981
C     -0.9502460768     1.1240144933     -4.0225747488
C     -4.3977396677     -0.3086347771     -2.0533842565
C     -3.3819282528     -2.5219921168     -1.7508317126
C     -2.1988733757     -3.3553705648     -1.8628335415
C     -4.2029245991     -2.6771882744     -0.5932500516
C     -1.9038993652     -4.2484882884     -0.7934933157
C     3.3871598917     1.5346352218     -2.4970941244
C     4.4698534466     0.9747058191     -1.7893586971
C     4.9878275879     1.5871766347     -0.5849620405
C     2.8322296595     2.8077049194     -2.0427134825
C     3.3097018107     3.3530248185     -0.824445864
C     4.3779371308     2.7245493865     -0.0902608113
C     -0.5029804947     2.4737307352     -3.708291355
C     0.9166704168     2.4574777848     -3.4999104391
C     1.5262215219     3.227264187     -2.4763470423
C     -1.2932431469     3.3045702865     -2.9645284995
C     -0.7209547276     4.05073952     -1.870507904
C     0.6584691788     3.9830359938     -1.5825171952
C     -2.6224330418     2.8897623106     -2.6162862734
C     -4.164701168     1.1139635323     -2.2086026048
C     -3.0969086247     1.5915161114     -2.9697542897
C     5.0770540006     0.6020749682     1.664448343
C     4.3543218406     1.749754128     2.1604919203
C     5.404912378     0.5270649622     0.3109107822
C     4.0647126682     2.8163021515     1.3204011747
C     2.810469131     3.5026969927     1.4360811679
C     3.3314283245     1.2752127299     3.0584323336
C     2.099261608     1.9211522733     3.1732292103
C     1.8413978699     3.1139566976     2.3712472995
C     1.0340644026     4.1478846683     -0.200055933
C     2.3905018943     3.9133826378     0.1211918621
C     -1.7059611729     4.101954264     -0.8497937736
C     -1.3697970247     4.0474423697     0.5205279618
C     0.0450433695     4.0765716416     0.85486863
C     0.4783120422     3.5414905083     2.1328708805
C     -0.489241077     2.9993007428     2.975337187
C     4.8938566877     -1.8728433378     0.29499554
C     4.4948279407     -1.7866541847     1.6913379042
C     5.2457460704     -0.7254499236     -0.4002780828
C     4.5308933128     -0.5671501607     2.336527457
C     3.4098356043     -0.1632976502     3.1393234412
C     2.2466477668     -0.9745743757     3.2604119434
C     0.9884104078     1.1217257179     3.6416855455
C     -0.234719234     1.7752722403     3.7114324686
C     2.4100101478     -3.4133896288     -1.9676491598
C     3.5408042389     -2.6448354127     -1.6348186109
C     4.075696815     -2.8588133405     -0.3335246305
C     3.2371371245     -3.4341242762     0.6825568865
C     2.0314834045     -4.0723549443     0.3804394407
C     1.749529992     -4.2429139882     -1.001623622
C     -0.5758600488     -4.6596579032     -0.5111582169
C     0.4082771553     -4.4335690207     -1.4417546194
C     0.99623456     -0.3304136338     3.5928353153
C     2.2358961015     -2.2837294359     2.6378121557
C     3.3835231386     -2.6718562149     1.8893194772
C     -0.3099043621     -4.4275186038     0.9052631354
C     0.9352183902     -3.9631860232     1.3369475826
C     -0.2527826624     -1.0538819283     3.4945868222
C     -0.2658228211     -2.3816267308     2.8844897771
C     0.9705387962     -2.9527812956     2.3870286756
C     -2.4876443866     1.9335431695     3.3553807748
C     -1.4494409034     1.0639902571     3.8443077188
C     -1.5085285163     -0.3392640165     3.6698093751
C     -3.6672484695     1.4166253766     2.9103546522
C     -3.8721769204     -0.0119033534     2.955034881
C     -2.7876519885     -0.8979293266     3.2289076558
C     -2.8014118108     -2.2024523795     2.6082438996
C     -1.5422073543     -2.9415796506     2.4610224541
C     -1.5157614066     -3.9832522678     1.5033959831
C     -3.6332438818     2.9390822464     0.9519208038
C     -2.3663484511     3.5045022086     1.4394241604
C     -1.8850124052     3.0473958832     2.6812116403
C     -4.3035426482     1.9788765364     1.7506844597
C     -5.2510643966     0.8160975534     -0.1922157554
C     -4.6199934507     1.7941183208     -1.0337916673
C     -3.8666289641     2.8739782281     -0.4843186191
C     -2.91881135     3.4550610809     -1.3464641621
C     -5.0991760767     0.9113972544     1.1802109669
C     -4.8570879941     -1.5334508911     1.3429308184
C     -5.0319116955     -1.6287575541     -0.1043203879
C     -5.1676534013     -0.4728300658     -0.8521981259
C     -4.8627796462     -0.297590243     1.9601922564
C     -2.5396531656     -4.0718943658     0.4857628633
C     -3.8881551452     -2.508780574     1.7381771942
C     -3.6680749624     -3.3352261664     0.5776387888


