100

 C     -3.9916017646     2.3433921899     -1.3603438086
C     -3.8320462859     1.0788562873     -1.978131413
C     -4.4475311515     -0.0730352527     -1.3319987814
C     -4.0158859662     -1.4188355261     -1.6869338219
C     -4.270290972     -2.477077199     -0.7693490129
C     -3.4827110606     -3.664640415     -0.740802484
C     -2.9335427981     -1.5949501737     -2.643697993
C     -2.2703688844     -2.8432525961     -2.6845776817
C     -2.5380840386     -3.8819635353     -1.7297503559
C     -0.8936800239     -0.6286483144     -3.718681522
C     -0.1342645786     0.4942895481     -4.0469718288
C     -1.8589844996     2.0375739278     -3.2195563339
C     -2.7116358493     0.8962923238     -2.9140189984
C     -2.2425817659     -0.4357054382     -3.2027482284
C     -0.6178822784     1.805268523     -3.8416490503
C     -3.0010458972     3.3909893645     -1.5196290299
C     -0.8087012606     4.0598360776     -2.1939744359
C     -1.971661265     3.2809780641     -2.458974556
C     -1.9005666163     -4.451800961     0.9667760019
C     -0.9820975302     -4.8423405352     -0.0844437437
C     -3.1374768831     -3.9432710846     0.6504215017
C     -1.2889670884     -4.5392180643     -1.4091135005
C     -0.2667686519     -3.983161649     -2.2478438298
C     0.3472484635     -4.6290069816     0.3915266746
C     1.3971358265     -4.2425702994     -0.4620406229
C     1.0706657619     -3.8624570519     -1.8272914271
C     -0.146055836     -1.8539859371     -3.4956632432
C     -0.8680921228     -2.9541654504     -3.0413139287
C     1.3120322008     0.503799576     -3.9323228377
C     2.0334356552     -0.6149789555     -3.5065151547
C     1.2970982935     -1.8461788355     -3.3051471566
C     1.8889319339     -2.8767099776     -2.4952202366
C     3.1861437317     -2.6625472907     -1.9764168372
C     -2.6020529101     1.4230627256     3.3133069499
C     -2.3146989175     0.0362759469     3.3537116414
C     -3.6950321832     -2.9064295591     1.4657561562
C     -1.1322126336     -3.8444318499     2.0260612119
C     -1.5623326875     -2.6721754481     2.6983944005
C     -2.9288505105     -2.2258719621     2.4532555672
C     -3.3135403934     -0.8689020842     2.8016974226
C     0.2445872281     -4.0472872439     1.712598929
C     0.1073448611     0.6288458657     3.6041979
C     1.8773787415     -1.1112934514     3.3488265369
C     1.2431224258     -3.221678888     2.2249296488
C     0.85627985     -2.0833964981     3.0387176266
C     -0.5466204612     -1.7494045935     3.1924806425
C     -0.9233224418     -0.3796168777     3.5001840286
C     3.2199321188     -1.3787031822     2.9551657677
C     3.5611782633     -3.1551203503     -0.6780939749
C     2.5805111034     -3.7173925718     0.1655208859
C     2.5247615717     -3.2727216985     1.5489329419
C     3.5319559461     -2.4244997912     2.0242273133
C     -4.57720296     -2.1594666791     0.6087672277
C     -4.4486059545     -0.3023580566     2.1565908868
C     -4.9538064047     -0.903761317     0.9491857658
C     -3.735141622     1.9689588559     2.619454116
C     -4.617768144     1.1114162853     1.9940463305
C     -4.5366164217     2.4819065888     -0.0407691722
C     -3.7356241455     3.4576226731     0.669800273
C     -5.0231623148     1.3676583185     0.6198698764
C     -3.3182585281     3.1963006695     1.9664373951
C     -2.8035463452     4.0373735944     -0.259423217
C     -0.5509747879     4.5600977121     -0.8857710571
C     -1.5008605692     4.4393806773     0.1449053548
C     -1.950296696     3.4635951883     2.3473090783
C     2.0940036772     2.5416097881     2.8540210657
C     0.752703374     2.9101039123     2.7307464244
C     0.3799379593     3.8408706257     1.6977974858
C     -1.0273325318     4.0841656711     1.4752450905
C     1.3520753599     4.0958179095     0.6409381675
C     0.8694728775     4.4464450617     -0.6306883478
C     1.497124915     0.2576879756     3.6082031303
C     -0.214704053     2.0174737105     3.3280500683
C     -1.5471934093     2.3853755454     3.2016366572
C     2.4664323343     1.2809138434     3.413541008
C     -5.0729362055     0.1193235439     -0.0657334439
C     4.1776238144     2.0183837473     1.9999727722
C     3.0967982351     2.9540770927     1.914983129
C     2.6955974794     3.5417689395     0.699250368
C     4.8749856978     1.6680804735     0.8529449736
C     4.4340201955     2.1815732548     -0.4194673441
C     3.3753805089     3.1121613661     -0.5217915934
C     5.0203897951     -0.6670961385     1.6173323122
C     4.1788930575     -0.3211326761     2.7513825802
C     3.7947197474     0.989944516     2.9513391056
C     5.3336630598     0.3058802301     0.6706998742
C     4.8637086454     -1.2773486486     -1.1489374179
C     4.5985857148     -2.3057437551     -0.1649594274
C     4.6253610313     -1.9894107398     1.1871673916
C     5.2023124752     0.001713978     -0.7423459413
C     3.6941856794     0.9807508019     -2.4680999384
C     3.3246634238     -0.3735913781     -2.8821299554
C     3.9309246657     -1.4640373239     -2.230330842
C     4.6121694049     1.138641419     -1.4016884249
C     1.5113861473     3.9762671983     -1.8249371267
C     0.4638161371     3.7291484225     -2.7743998806
C     0.5458863823     2.6501285727     -3.6203856478
C     2.6742467479     3.1755926776     -1.7835323539
C     2.8059865159     2.0864461206     -2.742011061
C     1.7231902653     1.8377669059     -3.6234596349


