100

 C     4.3971053329     -1.4293823132     0.9740555283
C     4.8286411527     -0.0983927429     1.1754026859
C     4.96588918     0.8177566255     0.0782954035
C     4.1482394079     -1.8877309922     -0.400036382
C     4.4202692502     -0.9961910482     -1.4475063334
C     4.7947750773     0.3736768547     -1.207016296
C     2.6945793716     -3.6740966035     0.4276099359
C     3.1813247649     -2.9525782051     -0.674766779
C     1.1255863864     -3.6944330388     -1.9216490971
C     2.3934958025     -2.9826058094     -1.9020417201
C     2.6487114433     -1.9641132039     -2.9169856235
C     3.6756610958     -1.032535593     -2.6801748147
C     0.1713185832     -3.3400347655     -2.9218338002
C     1.4556986404     -4.3799771771     0.3889272483
C     -0.8361366348     -4.5098447016     -0.5186112741
C     0.6099460426     -4.360640226     -0.7402165537
C     -3.0702978339     -3.5697575021     -1.1520081579
C     -1.7727463778     -4.02024296     -1.5258590409
C     -1.2478303412     -3.4631100886     -2.7015401715
C     -1.3086596595     -4.5495074033     0.8165344423
C     2.4992412434     0.7312950471     -3.9166357792
C     4.1472622865     1.2104980388     -2.2021642409
C     3.5892195969     0.3247606938     -3.1751486824
C     1.5177541021     -0.2209366692     -4.3061855657
C     0.3822076545     -2.2679796495     -3.8189808736
C     1.5960308283     -1.5598471263     -3.8455284199
C     1.8506418701     1.9774847529     -3.6065481177
C     2.2768754496     2.7957803078     -2.5531262738
C     3.512642836     2.4207354278     -1.8439648376
C     3.7227712393     2.8969944872     -0.4812261283
C     4.4544353744     2.1167193016     0.4540657532
C     2.7681247378     3.7737354489     0.0644952924
C     0.4524006293     1.8019102128     -3.9021139445
C     -0.5590056618     2.5072090043     -3.2212491854
C     -0.1587625573     3.5105371752     -2.2647873016
C     1.2590072515     3.6313163801     -1.91740516
C     1.5899456868     4.1889117985     -0.6670579579
C     -2.5014001286     3.6195098595     -1.5139792406
C     -1.1664557619     4.0450300351     -1.3588782136
C     -0.8870989485     -1.6120034243     -4.0357678001
C     -0.9787766991     -0.2148397626     -4.1357940127
C     0.2483161839     0.4688770121     -4.348618749
C     -2.0913525446     0.494186554     -3.5246623442
C     -1.8808763971     1.8909167777     -3.1748879732
C     -2.8396331257     2.5188203787     -2.3779063999
C     2.4071426427     3.7133537902     1.4428692134
C     2.9183955458     2.7318928858     2.3150924289
C     4.0510239109     2.0244813711     1.8253850388
C     4.341359492     0.6876382372     2.2862750847
C     3.5379709621     0.1213578356     3.2487358103
C     1.0587571149     4.1693583231     1.577211566
C     -1.1875600936     3.804212758     2.2833346267
C     0.179143921     3.5821459128     2.5167789501
C     0.5927342206     2.4156161818     3.2768668025
C     1.9973859258     2.0780247662     3.2556474222
C     2.3640982378     0.80957657     3.7347366663
C     -0.7812957996     4.5312975193     -0.0414023261
C     0.5864843652     4.549411807     0.2831883282
C     -1.6698092458     4.3869095011     1.0541212488
C     2.9074928647     -3.2021818944     1.7913402379
C     3.6802951792     -2.0592499396     2.0705458457
C     3.2585130059     -1.2823407393     3.1888275558
C     1.9685549449     -1.4800398531     3.7731707196
C     1.1675743247     -2.5720206216     3.4409841222
C     1.7557373997     -3.5278715108     2.5556099028
C     -0.4302470197     -4.3507752653     1.9251785072
C     0.9194669593     -4.3434453944     1.7252420933
C     -2.1833321098     2.9109992989     2.7934348041
C     -1.8091307605     1.6507247062     3.3264853762
C     -0.4060280997     1.4145815172     3.6198142159
C     0.0032443665     0.0591658916     3.9091791006
C     1.384939534     -0.1843991411     4.036048328
C     -2.2381258275     -0.8536156525     3.2504544142
C     -0.8835739778     -1.088049441     3.6727943253
C     -0.2832875435     -2.4040155484     3.4866903628
C     -1.0468417486     -3.4030733292     2.8537172038
C     -3.3560483934     3.0808489548     1.983952598
C     -4.2107866035     2.0182880813     1.8025798673
C     -3.9221515501     0.7572900597     2.4276833113
C     -2.7198097204     0.5247500678     3.1441030356
C     -2.9866781204     -1.9125765363     2.5890202209
C     -2.3613677279     -3.1631367002     2.4030173848
C     -4.3348752059     2.4873265124     -0.6022929283
C     -3.4399440387     3.6074639996     -0.4141820116
C     -3.0123106918     3.9412936008     0.865724467
C     -4.7635679893     1.7506875063     0.4883163483
C     -1.8883007884     -2.3558124193     -3.3541934085
C     -3.0257654233     -1.712767358     -2.8141711964
C     -3.1510620981     -0.25869501     -2.8963397648
C     -4.6765767401     -0.331825927     -0.8730907822
C     -4.0659392471     0.4104579806     -1.9793049783
C     -3.947053457     1.8007710511     -1.8206360077
C     -4.9258158666     0.3325457584     0.3557221267
C     -4.4467402911     -1.7190797592     -0.7741539527
C     -3.6701061324     -2.4200750671     -1.7639564387
C     -2.5699629832     -3.9497375255     1.1917935767
C     -4.5009952882     -0.2650670703     1.5924977527
C     -4.0624178089     -1.5900948607     1.662644291
C     -4.2495681537     -2.361609444     0.4815061727
C     -3.4506142025     -3.5295976056     0.2338192959


