100

 C     -2.9024145259     2.2738275016     -2.6430815246
C     -3.6151661879     1.0694413557     -2.651088368
C     -4.6566716628     0.9625911536     -1.6836801214
C     -5.1391550084     -0.3295650002     -1.2595323664
C     -4.5760402676     -1.4626961421     -1.8081327084
C     -1.5760234694     2.3746325418     -3.1796976964
C     -0.8349150384     1.2391112653     -3.5490058371
C     -1.5179678759     -0.0535939983     -3.5156899935
C     -2.9288037173     -0.1149593075     -3.1482785993
C     -3.48302672     -1.358861494     -2.7660942959
C     0.7340148418     -1.1511705953     -3.5587522152
C     -0.7182573125     -1.2452765868     -3.4677267883
C     -1.2994103268     -2.4706877633     -2.9506230952
C     -2.6540791959     -2.4898328691     -2.5984469127
C     1.4798016777     -2.3011870884     -3.2528127049
C     2.8339638944     0.1840270635     -3.2179957218
C     2.6124675164     2.5930484003     -2.7641907203
C     1.2435171239     2.5926752471     -3.1034902202
C     0.6302520492     1.3416018199     -3.5287087033
C     1.4193205127     0.1413858679     -3.5628619501
C     3.3907286922     1.4211345983     -2.8365587409
C     -5.123713233     -1.3439813911     0.9825903724
C     -4.5440916311     -2.5383099493     0.4094539568
C     -5.4469956119     -0.2697907261     0.159052352
C     -4.3162901883     -2.6150167104     -0.9693339225
C     -3.1434458154     -3.25821629     -1.4544298204
C     -3.5264652818     -3.0119433046     1.3029909759
C     -2.3893489642     -3.6771384068     0.8457385754
C     -2.2224951679     -3.86373398     -0.5906485924
C     0.8871557812     -3.4670157221     -2.6385748027
C     -0.4781326203     -3.5066895736     -2.3617287638
C     -0.9181559527     -4.1559192094     -1.1331389807
C     0.0553041615     -4.5956019687     -0.2290769446
C     -4.5894897221     1.3300335953     1.817613222
C     -4.2059838478     0.2103661597     2.6614398055
C     -5.1673300883     1.0892100812     0.5845161219
C     -4.450978436     -1.099004254     2.2476771809
C     -3.4354764605     -2.0880335033     2.4252546567
C     -2.1853775484     -1.7805738801     3.0179207299
C     -1.2092862397     -3.6566176583     1.6956719472
C     -0.0785563062     -4.2845013158     1.1884599856
C     0.1396445775     4.6285530317     -0.259907073
C     -1.2340950143     4.3067512984     -0.2316111133
C     -4.7052800559     1.8487880044     -0.5571282083
C     -3.5868440842     2.3626675231     1.9684964304
C     -3.1544422193     3.1737965824     0.8976227876
C     -3.7643120601     2.9055587901     -0.4107778804
C     -1.8414642086     3.7824168468     0.9884736818
C     -2.6451499887     1.8995939461     2.9305507207
C     -1.3423430952     2.3740913505     2.9792214601
C     -0.963369864     3.4500698137     2.0872503241
C     1.3708435128     3.1014768422     2.8338499184
C     0.4431739552     3.82020656     2.0415417812
C     0.9782214165     4.4571871763     0.9038887115
C     -0.6080903327     0.0460954164     3.6995317657
C     -0.348064191     1.4876442928     3.5795865684
C     2.9273670622     -1.1424480548     3.2709642964
C     1.8377373741     -0.3624317179     3.7093582774
C     2.0569927224     1.0351697702     3.6757339138
C     0.9608458239     1.9361054649     3.586738667
C     -1.0538935969     -2.6359709755     2.7339211942
C     -1.9544451439     -0.4264053941     3.4836807659
C     -2.975561927     0.5330614376     3.2953677128
C     1.2203292051     -4.0168147533     1.705888015
C     1.4015340124     -3.0103711231     2.6870962553
C     0.2561374066     -2.2429349378     3.1540900319
C     0.479027736     -0.8807476322     3.6608832194
C     2.7086549182     -2.4684175506     2.748624138
C     -3.0123522298     3.2031623724     -1.5621561723
C     -1.7925053274     3.940913883     -1.4818206424
C     2.2937194791     4.2266956321     -0.9624964032
C     0.9435986695     4.4085515819     -1.4158678837
C     0.4363548725     3.6439355694     -2.5047162715
C     -0.9503256196     3.5098426706     -2.5518424608
C     3.1271467903     3.3978087454     -1.6591201682
C     2.7174837865     2.8893694019     2.4289571947
C     3.2050352257     3.3625650851     1.185176455
C     2.3286198758     4.2318909576     0.4810671539
C     4.6543850818     1.2780721679     1.03399289
C     4.1655714829     2.53254273     0.44771422
C     4.1394605078     2.6327978072     -0.9680109048
C     5.1348155774     0.2719593258     0.1645992258
C     4.5351189125     -1.5597092582     1.6845632377
C     4.0589938868     -0.5688520157     2.6195116623
C     4.1203157752     0.8258607652     2.3243677084
C     3.1565687832     1.6184265837     2.9703676761
C     5.0336109403     -1.1462826543     0.4737448993
C     2.1881188855     -4.2378530503     0.6626698126
C     3.3960632383     -3.514608677     0.6088504411
C     3.6981667901     -2.7384238102     1.7651636087
C     3.0720611096     -3.2712461743     -1.839339384
C     1.8589289044     -4.0424345845     -1.7584921734
C     1.4458938795     -4.5588756239     -0.5379280684
C     4.6931730277     -1.8783484423     -0.7388749901
C     3.8819126205     -3.0441266403     -0.6960107319
C     4.4168902379     1.5033319886     -1.7995211839
C     4.9474830307     0.3682621587     -1.2522720379
C     4.5695438322     -0.9215808363     -1.7842338954
C     3.5320400548     -1.0132217781     -2.7585914985
C     2.8484821507     -2.2355258517     -2.8038664484


