100

 C     -2.1565836474     -4.1175245345     0.8178027829
C     -3.2172278009     -3.8099500661     -0.0629362995
C     -4.1910269826     -2.811759654     0.2473626902
C     -2.0680362638     -3.365217162     2.0731125445
C     -3.1020269618     -2.4826186024     2.3932494015
C     -4.1826501795     -2.2026738971     1.4816491619
C     1.6408187924     -3.4682499982     2.4557989388
C     0.3071483875     -3.8720498756     2.2489690656
C     -0.7728946602     -3.0949821318     2.6876233863
C     1.9659118028     -2.2142549125     3.0256527009
C     0.8777792452     -1.3571232559     3.4463358448
C     -0.4797429541     -1.8228001025     3.3323546133
C     -1.5615153198     -0.8745522324     3.5220814526
C     -2.858237746     -1.2844866879     3.1597684548
C     2.4279261792     0.5583948098     3.3933900943
C     1.1285591107     0.0851116331     3.5908342584
C     3.4929853815     -0.2944225438     2.9119485508
C     3.2726087224     -1.6605289789     2.6837476864
C     4.0599301949     -2.2485095862     1.6467146137
C     -3.6101928877     1.0153481544     2.8889138427
C     -4.5774733548     -0.8209453291     1.6287686196
C     -3.8584833129     -0.3276635591     2.7662755263
C     -1.2905849773     0.5609236298     3.628481554
C     -2.3387444552     1.465763526     3.3895300233
C     0.0576372817     1.0598329463     3.5294865408
C     -4.0778534694     1.9261540986     1.8895924393
C     -4.5827551373     1.452112999     0.6517191799
C     -4.8349359528     0.0143505985     0.5135918386
C     -4.7505407513     -0.6145899873     -0.8118058605
C     -4.462884085     -2.0030550894     -0.9288506894
C     -4.3404490603     0.17661294     -1.9083218921
C     -3.2101424858     3.0774231504     1.974311888
C     -2.9999892282     3.8768216083     0.8825052407
C     -3.5357887185     3.4686599079     -0.4031758476
C     -4.2654778593     2.2533391096     -0.536180632
C     -4.1095207604     1.5903661652     -1.7756899507
C     -2.0984372343     2.7699871248     2.8476912743
C     -0.7979253373     3.2375414663     2.5987080801
C     0.3074758978     2.4083041451     3.0459582647
C     -3.4403386429     -0.3243020737     -2.8972365565
C     -3.0002320812     -1.6531309791     -2.9054114708
C     -3.6565813514     -2.5218388018     -1.9869051571
C     -2.9701921528     -3.6901564337     -1.488720906
C     -1.7616292656     -4.036173572     -2.0220025693
C     -2.5768975721     0.7495251401     -3.3081678
C     -1.211387647     0.5522726858     -3.5716902587
C     -0.709841447     -0.8250144983     -3.5930854462
C     -1.6318590765     -1.9149203684     -3.3339176414
C     -1.0967072859     -3.1753130352     -2.9835831356
C     1.6093441607     0.0929870015     -3.4477416598
C     0.7091713465     -1.0511732233     -3.49774315
C     1.2146042401     -2.3549454269     -3.0872845568
C     0.2884950772     -3.3747687988     -2.8270048711
C     2.9472761353     -0.1518134992     -3.1035976871
C     1.9977732412     2.4996096428     -2.8497460191
C     0.0327817643     3.9270342149     -2.4359500824
C     -0.86034229     2.9616275392     -2.9414858924
C     -0.310275116     1.6966134501     -3.410345045
C     1.1086566392     1.4666696732     -3.3589260709
C     1.4224503495     3.7009438479     -2.3896495324
C     -3.0749571573     1.9505939161     -2.6905022737
C     -2.5988935957     3.8969144732     -1.3915192481
C     -2.2440091925     3.0568843686     -2.4850939993
C     0.2336073874     -4.6389541678     1.0037330026
C     -0.940701387     -4.6648071278     0.2344041161
C     -0.7606851389     -4.6430479863     -1.1842302619
C     0.507338082     -4.3457635654     -1.752012301
C     1.6796329295     -4.3286379251     -0.9831949716
C     1.5230500322     -4.6145217346     0.4095808461
C     3.553181372     -3.3905792902     0.9248214434
C     2.4219352349     -4.0158049436     1.3603681828
C     3.4081105813     -1.4353245101     -2.6283365746
C     2.5410660662     -2.5224232885     -2.5105433767
C     2.7793679002     -3.4876768168     -1.4323256906
C     3.7952138985     -3.194775581     -0.495529251
C     4.6588204262     0.2262301044     -1.5584739765
C     4.4680746461     -1.194324574     -1.6897563994
C     4.6091942373     -2.0262633649     -0.5975664147
C     4.5519729647     2.1784818202     -0.1624515335
C     4.9331041073     0.8194551985     -0.2952161277
C     1.9339946735     4.3540343281     -1.1884051669
C     3.0570021879     3.8984917895     -0.5677683625
C     3.8460971575     2.8647844055     -1.1918970858
C     3.3145916113     2.1653828765     -2.3170934312
C     3.781509554     0.8562833531     -2.4936498401
C     -1.5688780872     4.6528237092     -0.7206902075
C     0.8189574335     4.7839668951     -0.4013463272
C     -0.3216415053     4.7224927992     -1.2642110362
C     3.9024905916     1.8491271283     2.173576169
C     2.6851824907     1.8944326134     2.9439745965
C     1.644903743     2.7960621929     2.6559213663
C     4.0573249699     2.6999087556     1.1061519184
C     3.0679087236     3.7111990473     0.8604892158
C     1.8616506355     3.7904293362     1.6025673837
C     0.7157883593     4.4256546276     0.9727687053
C     -0.6095709037     4.2159778323     1.5251224383
C     -1.7278257865     4.5150556251     0.7035840942
C     4.7927590507     -1.4411480634     0.7278573081
C     4.9178674787     -0.0404978041     0.8958962849
C     4.3641857894     0.4860312364     2.0977029123


