100

 C     3.8541546355     1.2791941504     -2.4495625008
C     4.1458196919     -0.0801247721     -2.2248435384
C     4.9073730373     -0.3669517002     -1.0575215339
C     4.7949808121     -1.6527591809     -0.4198590631
C     4.0739582244     -2.6415254277     -1.0271560944
C     2.7087323689     1.6638578404     -3.2196389999
C     1.7072684166     0.7350668671     -3.6129832128
C     1.9675408769     -0.6798434873     -3.3966098038
C     3.2306403482     -1.0738798581     -2.7786474663
C     3.3282303645     -2.3760848046     -2.2454566383
C     -0.4991563033     -1.0979191251     -3.6743350004
C     0.8581504002     -1.6020892268     -3.4430499235
C     1.0119577795     -2.942459929     -2.8898196391
C     2.241542357     -3.2819187223     -2.2980701108
C     -1.585665993     -1.9645303783     -3.4392953274
C     0.3417972464     1.2291900742     -3.7728435453
C     0.0953787415     2.595124594     -3.5047325223
C     -0.7893136315     0.3196410748     -3.7360952728
C     1.1488721356     -4.6167970532     -0.5556709295
C     3.3061198536     -3.5707503876     -0.2292033974
C     2.2920836917     -4.1000916132     -1.0926043792
C     -0.0808957433     -4.5258201084     -1.2863263363
C     -1.4195642124     -3.2407160967     -2.7907545459
C     -0.1495013109     -3.7166795488     -2.4590955825
C     0.8764238929     -4.4531143023     0.8485234712
C     1.7454666398     -3.7229533949     1.6762505465
C     3.0644144338     -3.3356836461     1.1430515902
C     3.8198763451     -2.2536140889     1.7732363649
C     4.7312500218     -1.4801041706     1.0053139614
C     3.2459169778     -1.6174967314     2.9045902719
C     -0.549691213     -4.3825072134     0.9811958639
C     -1.1729189569     -3.5978139702     1.9669233728
C     -0.3110144027     -2.8439209127     2.8636695414
C     1.1267870108     -2.9511746489     2.7376218474
C     1.9200390386     -1.9458702398     3.3411411068
C     -2.2389395495     -1.4427174764     3.4196330083
C     -0.8698656125     -1.6798604212     3.541432238
C     -4.2737253534     -2.5765624993     0.0764879942
C     -3.2008102194     -3.4262307249     0.4380078664
C     -2.5667608916     -3.2245921146     1.7416097563
C     -3.0988995863     -2.2320500165     2.5796791005
C     -1.1427863208     -4.5242308552     -0.3367975677
C     -2.5636579203     -3.4869385036     -1.9675875481
C     -2.4075179619     -3.9871333256     -0.6439704878
C     3.4715775486     -0.2298299958     3.1823238373
C     4.2674981965     0.5847298167     2.334108892
C     4.9124609273     -0.0714477954     1.2441818316
C     3.894259073     1.9512836604     2.173342265
C     2.2760252432     0.3007311253     3.7871084222
C     0.3979560794     1.872806626     3.5153181448
C     1.8209363582     1.6061926829     3.5098844374
C     2.6805313174     2.4528189633     2.7553942756
C     -1.4627282927     3.198091503     2.6178931218
C     -0.084708878     3.033679943     2.7740893057
C     -0.0331454132     -0.552626604     3.9306728032
C     1.3437011612     -0.7650621798     3.9174606354
C     -2.7882895787     -0.1115578984     3.5244916366
C     -1.9358889241     1.0119980654     3.6682182949
C     -0.5225629215     0.8140345503     3.8620445863
C     -2.4037282127     2.21743926     3.1096602001
C     4.0999775192     2.6387930725     0.9311842768
C     4.6347674985     1.9500800504     -0.1944973635
C     5.0728571883     0.6048786907     -0.0209709037
C     4.1362519165     2.2999089717     -1.4743804757
C     3.0215493632     3.5719171034     0.7642987134
C     2.4993046482     3.9172463057     -0.509245918
C     3.1456358322     3.3316262331     -1.6324507803
C     1.0931135991     3.4446336248     -2.9081704767
C     2.3770836745     2.9943104776     -2.794566924
C     0.7727205391     3.7229729301     1.8154540544
C     2.1566758613     3.4653326098     1.8963932516
C     -2.0319801534     3.871741587     1.5007017332
C     -1.2148640025     4.2709754549     0.4134826454
C     0.2212804314     4.2603196572     0.5841104195
C     1.0885757031     4.3090395322     -0.5970848164
C     0.4776265767     4.2176827658     -1.86579894
C     -3.3456116614     3.3001154925     1.3059327625
C     -3.8777851613     3.142528817     0.0430507125
C     -3.081789232     3.5371308947     -1.0895506064
C     -1.8045690957     4.1508256727     -0.9199214546
C     -0.9347034955     4.0301590115     -2.0050182737
C     -3.9749004291     -0.0568154644     2.7406366386
C     -4.3427074944     1.1083036314     2.0195100016
C     -3.574838733     2.2725508562     2.3031243774
C     -5.0952278388     -0.3566516896     0.1573825871
C     -4.7510797073     -1.5360064416     0.9429844549
C     -4.1881144374     -1.3867044938     2.1885385659
C     -4.6353035441     1.9590503787     -0.2912032805
C     -4.9051880019     0.9479560452     0.671816771
C     -3.5116578714     -2.4525822354     -2.246932966
C     -4.2738009409     1.6190825363     -1.6301522625
C     -4.2361215641     0.2905210818     -2.0901675115
C     -4.8028992227     -0.6736781311     -1.2049667451
C     -4.3884591362     -2.0558078087     -1.2678554924
C     -1.1685066377     3.0457357182     -3.0376979351
C     -3.3186971526     2.5845828243     -2.119057031
C     -2.2848501963     2.196809213     -3.0096654319
C     -2.1176986806     0.8097487824     -3.4038761694
C     -3.1699697108     -0.1146288597     -3.0210287588
C     -2.894290094     -1.4817505456     -3.1291510727


