100

 C     3.6604666691     1.5922481242     2.5188867966
C     3.911215397     0.2128339332     2.5930260644
C     4.7517661516     -0.3201948105     1.5753953379
C     4.7169487861     -1.7225953906     1.2481469864
C     3.8580587126     -2.5599802414     1.9371769858
C     2.4373171202     2.166170693     3.0425921901
C     1.4145944526     1.3571067525     3.5729044205
C     1.6418715864     -0.076618126     3.6639929663
C     2.905973669     -0.6416654454     3.2179258035
C     2.9353422081     -2.0132956702     2.9131688351
C     -0.7525769704     -0.3540739763     3.9907076362
C     0.4966686943     -0.9422975939     3.7608410769
C     0.8071606462     3.7901205998     2.1045222077
C     2.141125024     3.3603451787     2.3384125553
C     -1.8625569742     4.0137240487     1.1416568167
C     -1.6499592015     3.2477130349     2.2967938391
C     -0.2647710624     3.0913216437     2.7708362483
C     0.0742837081     1.9138925493     3.5448854245
C     -0.9659281083     1.0459147649     3.9083713017
C     4.1849311818     -2.8632016912     -0.8565700183
C     3.3820412349     -3.8124544806     -0.1144635065
C     4.8596491136     -1.8514291006     -0.1879699952
C     3.1879766384     -3.6438583269     1.2471669411
C     -0.09514131     -4.4381840777     -1.2094548756
C     2.2541528334     -4.1829647759     -0.9234974567
C     0.9932632597     -4.4849439171     -0.3380387504
C     0.4835341186     -2.279844668     3.2020241259
C     1.7311043508     -2.7999741734     2.8426596444
C     1.8612808789     -3.7817752264     1.8178802686
C     -0.5918590859     -3.7755694515     1.5114593114
C     0.7402207686     -4.1855655763     1.0681221732
C     -0.7178835815     -2.8548504026     2.6129984481
C     4.1968523031     -0.1994368779     -1.9165167694
C     3.4054824048     -1.2474518614     -2.5741958199
C     4.9069290648     -0.5372607799     -0.7429196173
C     3.477286341     -2.5551734281     -2.0608576994
C     2.3267119748     -3.4289350476     -2.1374423098
C     -0.0095589533     -3.7572946864     -2.4706895668
C     1.1551263862     -3.06285732     -2.8367267475
C     1.0311731678     -1.7445499389     -3.4168577363
C     2.2059078391     -0.8867743162     -3.3382503922
C     2.0304340796     0.4588719632     -3.6260771146
C     2.8930498576     1.4929656328     -3.091483405
C     3.8753062262     1.209593319     -2.1262334423
C     4.1180634421     2.2066601366     -1.0812006432
C     2.1306835356     2.7001114172     -3.0737036502
C     2.379376315     3.6522822731     -2.1073729728
C     3.383686665     3.4161200617     -1.1191105965
C     -1.0693027763     4.3766689604     -0.9948467768
C     1.2567694082     4.3513927863     -1.5172012841
C     -0.0748633796     4.093968755     -1.943346923
C     0.7754701702     2.402722586     -3.4899383579
C     -1.6048269658     2.3258799548     -2.9505291384
C     -0.3382350623     3.040772022     -2.9378176808
C     -3.8124884491     2.0639427062     -1.8770145734
C     -2.6705628335     2.8441832583     -2.1081279461
C     -2.3750797241     3.8008391755     -1.1009539876
C     -0.4436629568     0.2559521421     -3.7501427207
C     0.7310820845     1.0202730172     -3.8441770809
C     -3.7581573899     -2.0103026092     -2.3410918056
C     -2.7675256812     -1.3019428214     -3.0855768452
C     -2.86040871     0.1500734545     -3.1245549273
C     -1.6714928746     0.9484465778     -3.3931816284
C     -3.9545097557     0.7664612897     -2.4686507476
C     -0.2913251382     -1.1804470882     -3.6214569145
C     -1.301459975     -3.2601900112     -2.7972570947
C     -1.4810463519     -1.9618812778     -3.3163248903
C     4.5720659461     1.7494418507     0.2256494938
C     4.9714395842     0.4095355036     0.3661011942
C     2.8863920239     4.0373228108     0.0973425241
C     3.1713003769     3.4997243462     1.3262717967
C     4.0683551532     2.3749971312     1.4047070029
C     1.5656848384     4.5743857841     -0.1424463722
C     0.5561184307     4.5027025259     0.8597873952
C     -0.7665588636     4.5516947916     0.3907200962
C     -5.1686412901     0.8194179868     -0.4711651536
C     -4.502298347     2.0787013882     -0.6106668875
C     -3.9192859006     2.7314939666     0.5071754784
C     -2.9141459413     3.6725056864     0.2086553829
C     -5.2252455654     0.2152679264     0.7759227293
C     -4.8378738389     -1.9878074828     -0.2569918426
C     -4.7566953658     -1.3401960832     -1.5623645657
C     -4.8817128531     0.0276836538     -1.6538816951
C     -5.0252175436     -1.2246506844     0.8783581875
C     -2.2063418071     -3.7952577806     -1.8166571236
C     -3.8889770603     -3.0637834799     -0.2383733038
C     -3.3948326612     -3.1803515303     -1.5860659255
C     -2.9779767871     -0.016913992     3.5213377346
C     -1.9761780013     -1.0337793128     3.6602062193
C     -1.9954949376     -2.2054829409     2.8770945102
C     -4.0711321353     -0.2302451352     2.7234696116
C     -4.2167806674     -1.4906777912     2.0383502415
C     -3.1612471169     -2.4458655957     2.0278977684
C     -3.0090819918     -3.2917892935     0.858400808
C     -1.7254676178     -3.9485860775     0.6050310145
C     -1.436025538     -4.3248912798     -0.7278026564
C     -3.8740810968     2.0655419289     1.7978481296
C     -2.7035452424     2.2930660194     2.662523066
C     -2.339096824     1.2685494998     3.5443811456
C     -4.5815965567     0.8401980334     1.9104239992


