100

 C     -4.8179203752     0.7316799344     -0.6734967601
C     -4.2817538203     -0.2997670311     -1.4877425624
C     -4.1973784272     -1.6399240059     -0.9248414452
C     -3.3491102522     -2.627860109     -1.558218309
C     -2.9899842304     -3.7763423699     -0.8007425196
C     -1.7794958768     -4.505175468     -1.0551289938
C     -2.4627861803     -2.224252162     -2.6546965348
C     -1.3938688035     -3.0777155759     -2.9856864607
C     -1.02890812     -4.2075019106     -2.1577269676
C     -4.5323497883     2.1163958348     -0.8954792684
C     -3.3684425808     0.0904291667     -2.5631166899
C     -2.3535608492     -0.8311875572     -3.0502363407
C     -3.7686049854     2.4867583305     -1.9906872945
C     -3.1682534177     1.4608912394     -2.800644352
C     2.1556274962     -2.9207280323     -3.055056957
C     0.4128413877     -4.3086479078     -2.1190447058
C     0.8908429528     -3.4262253126     -3.1333444647
C     3.616528907     -1.1651725015     -2.876509378
C     2.4265615901     -1.6013881654     -3.5508551003
C     3.8924183535     0.1809301441     -2.8016240521
C     -1.8925870754     1.9619820374     -3.2507218633
C     -0.8298292039     1.1105571816     -3.5654315937
C     -1.1066564071     -0.3203510355     -3.59141315
C     0.0068996967     -1.2102741014     -3.8205811724
C     -0.1934021802     -2.5818387673     -3.5815083998
C     0.5186613573     1.6480629201     -3.4762936285
C     1.6333215276     0.7301802517     -3.6701487291
C     1.3775811049     -0.7005396912     -3.851501773
C     2.9181836654     1.1336350059     -3.2747774729
C     2.9521010137     -3.1464833373     -1.8770472703
C     2.4188550887     -3.7890350602     -0.754809359
C     1.1146007256     -4.4611915329     -0.9001912245
C     0.309277681     -4.7352846447     0.2829120303
C     -1.110052687     -4.8070091096     0.1930697417
C     0.8255528971     -4.3389754539     1.5304366417
C     3.8711409686     -2.0349720529     -1.7678538585
C     4.2942065422     -1.5109320973     -0.5251985023
C     3.798714378     -2.1615043487     0.6820583048
C     2.8923219384     -3.3199084795     0.5543920103
C     2.1147640425     -3.6780752468     1.6640488345
C     4.3534566603     -0.0859552374     1.9147705037
C     3.8286152138     -1.4195584365     1.9215168793
C     4.7309410472     -0.1122317144     -0.5087670657
C     4.7603198837     0.5616512085     0.7376033088
C     4.5425013862     0.7061876527     -1.6603655376
C     -0.0248307171     -3.8368518986     2.5547676576
C     -1.4158366581     -3.6909814937     2.3920141235
C     -1.9571162765     -4.323594619     1.2394163444
C     -3.1550728736     -3.8004445939     0.6265317199
C     -3.8550444601     -2.8015900894     1.2459205746
C     0.719001163     -2.8836048076     3.3252818137
C     0.9763306681     -0.6575213738     4.1272434302
C     0.1018568883     -1.7193569448     3.8384228346
C     -1.2985226051     -1.4372803913     3.5685485299
C     -2.0755158691     -2.5010804583     2.9583421795
C     -3.3360236874     -2.1633536175     2.4467398064
C     2.8910124668     -1.7368613874     2.984915604
C     2.0647579557     -2.8620807238     2.8373420932
C     2.3587960614     -0.7007332847     3.8053311787
C     -4.8679819655     0.5577669663     0.7624914215
C     -4.5101357881     -1.8112133913     0.4522588779
C     -4.6679908103     -0.6694206806     1.3046581461
C     -4.2758576396     2.7437578142     0.3943458683
C     -4.3199317823     1.728646232     1.4028391212
C     -3.3488748981     3.7570182057     0.4955812113
C     0.5214494572     0.717662103     4.0663401207
C     -0.7788367105     1.0395735144     3.6596398825
C     -1.7448877049     -0.0559350032     3.5015516906
C     -3.0218274094     0.257701251     2.9155037562
C     -3.8127173742     -0.823024023     2.4592015737
C     -0.977338884     2.3443311363     3.0489493061
C     -2.2790893192     2.6359648406     2.4529509255
C     -3.3009805398     1.5978053516     2.3876488015
C     -2.3889996218     3.7318104195     1.5659656521
C     1.6421069874     1.5435372569     3.7816037311
C     1.5223713563     2.7189410493     3.0348958293
C     0.1748434634     3.1633991672     2.7181886533
C     1.1537734698     4.4914906348     0.8633798858
C     0.0395187424     4.173322431     1.6801936847
C     -1.2130926334     4.4172210267     1.1040880973
C     3.7985155691     2.2091367648     2.0895821989
C     3.8071458099     0.9471001762     2.7853095106
C     2.7905255764     0.6567379936     3.6455628727
C     2.4660859826     3.9654443433     1.1222369794
C     2.6850647414     3.1099404195     2.2116286684
C     4.1355845623     2.0975800064     -1.550322586
C     3.1334634149     3.7805097032     -0.1335303013
C     4.0910997662     2.7511989693     -0.2978684585
C     4.4459409895     1.9947901797     0.8491081481
C     -1.6818418116     3.2652818135     -2.6977064838
C     -0.3902016264     3.7096362902     -2.3722678609
C     0.74049322     2.9333509916     -2.852093809
C     2.175446145     4.0747132298     -1.1656886986
C     2.0627222218     3.2497395163     -2.3095342457
C     3.1280474476     2.3425630461     -2.530429288
C     -1.3641878443     4.6817345378     -0.304416053
C     -2.6746515736     4.249402989     -0.6874627188
C     -2.8430623299     3.5922795874     -1.8988976067
C     1.0017713216     4.6118984477     -0.5456690199
C     -0.2563462795     4.5330779249     -1.1708638725


