100

 C     4.6586255233     -2.3393443315     0.7460236854
C     4.9218309368     -1.1629092502     1.415205807
C     5.3955918614     -0.005154406     0.6949280615
C     4.9168882938     1.1548886502     1.4080850269
C     4.6572959413     2.3302260892     0.7347912676
C     3.6071319988     -3.1993061336     1.1998363117
C     1.9392284061     4.5045749711     0.0055570908
C     3.1497886816     3.9027170187     0.0110007044
C     3.6011992461     3.1867541574     1.1802653394
C     3.989126745     0.7167841089     2.4258117541
C     1.6742561546     0.7217054883     3.224106318
C     2.8228697973     1.4480847572     2.7325364664
C     2.6473810629     2.7736887504     2.1477797761
C     -0.6819847203     0.7064469619     3.7789278046
C     0.4224452654     1.4390170461     3.3654161331
C     0.1875634306     2.7483190497     2.7335615654
C     1.3199168029     3.3951853654     2.1262218159
C     1.0531809409     4.3808836521     1.1438182503
C     1.0627274525     -4.3937740092     1.183406237
C     1.3336959602     -3.4143324329     2.1606049092
C     2.6589508043     -2.7877890787     2.1719288744
C     2.8320034199     -1.4573936796     2.7489121158
C     3.9923116392     -0.7210328273     2.430405113
C     0.2023931204     -2.7626987342     2.7791152737
C     0.4346160244     -1.4635137412     3.3963481905
C     1.6799253902     -0.7341705597     3.2347348009
C     -0.678607825     -0.7277689106     3.8005112987
C     -1.2268830689     4.4078830576     -1.5454057705
C     1.1400993865     4.480453792     -1.1824587844
C     -0.1840818469     4.7947664213     -0.7601012252
C     -2.4994334777     4.1196459066     -0.9438630757
C     -3.6593964293     3.1390991161     0.9173574364
C     -2.6036487551     3.9670860374     0.4658253858
C     -2.0275324057     1.1417685713     3.5608400735
C     -2.2940145611     2.331915108     2.8197095021
C     -1.1642780417     3.1505578608     2.3903956999
C     -1.3902010914     4.071058443     1.2851988346
C     -0.2632041339     4.6527408872     0.6887117418
C     -3.529514638     2.3822361593     2.1437334132
C     -1.0034901804     3.4793026205     -2.6234394269
C     0.2477470954     2.8683010056     -2.8272436924
C     1.3878319303     3.4909058112     -2.1762739929
C     2.6518647366     2.7975537161     -2.140102712
C     3.6057733073     3.1974695801     -1.1638546531
C     4.644231538     2.3270785296     -0.7252539338
C     2.7379643343     1.4472521932     -2.6848730821
C     3.8962184725     0.7081059054     -2.3896894272
C     4.8695453366     1.1498170256     -1.4093163527
C     -2.227542225     2.7661051871     -2.7898017383
C     0.2217143346     -2.8712861045     -2.7760657356
C     -1.025053168     -3.4775616131     -2.5675232776
C     -2.2236471896     1.4323521727     -3.23590581
C     -0.9513010791     0.7301118389     -3.4042162921
C     0.2872670206     1.4483872326     -3.2181086461
C     1.5281428367     0.7220152231     -3.0931882561
C     -2.2485811155     -2.7561738722     -2.7284835598
C     3.8914462781     -0.7294860884     -2.3839086887
C     -2.2419228441     -1.4114609732     -3.2006494293
C     -0.9568046846     -0.7212401195     -3.3861366709
C     0.2698960499     -1.4468538836     -3.1871126362
C     1.5212514152     -0.7334945446     -3.0807219114
C     2.7253151608     -1.4626766794     -2.6669843023
C     -3.4284683174     -0.7101181187     -2.9640970588
C     -3.4240620332     0.7251311995     -2.9648836937
C     -4.5159426263     2.4290710716     0.0384205693
C     -4.2253716956     2.4003290725     -1.3575025439
C     -3.2055805178     3.2448964695     -1.8323641829
C     -4.4078603921     1.1778742561     -2.0487692042
C     4.638997771     -2.3422663123     -0.7134249399
C     5.3647229155     -0.0081021841     -0.708713817
C     4.8640367809     -1.16846416     -1.403169163
C     1.3674643762     -3.4970334654     -2.1337097675
C     2.6345623995     -2.8093702864     -2.1117728384
C     3.5953568201     -3.2112444383     -1.1428039596
C     3.1484493981     -3.9170750812     0.0356358888
C     1.9366357267     -4.517185614     0.041496823
C     1.1241121679     -4.4895548014     -1.1418316336
C     -2.5072368822     -4.1348174367     -0.8907175507
C     -1.2494200589     -4.4181137199     -1.4943104839
C     -0.1950638081     -4.8057764278     -0.7141057625
C     -3.658257626     -3.1261276563     0.97269168
C     -2.6011131829     -3.9626144186     0.5102620557
C     -4.4273683755     -1.1594885784     -2.0307228756
C     -4.5389107919     -2.4014680179     0.0708503395
C     -4.236013135     -2.367877256     -1.3122585192
C     -3.1987594226     -3.2126250524     -1.7766007358
C     -4.9508291827     1.2279083698     0.7256731223
C     -4.9871515544     -1.2255501742     0.741475898
C     -5.1909291856     0.0012967551     0.0311339175
C     -4.9396103657     0.0036746237     -1.3808379743
C     -2.8568267766     -0.0012950645     3.4817333233
C     -4.3783310065     -1.218067815     2.047272781
C     -4.0282788582     -0.0030134468     2.669812314
C     -4.37695492     1.2277534874     2.0366831942
C     -0.266052162     -4.6576965786     0.7264575767
C     -1.3884192268     -4.0772465938     1.3297195706
C     -1.157039592     -3.1630366494     2.4429817031
C     -3.5275741534     -2.3858264472     2.1603382932
C     -2.2748665242     -2.3442255446     2.87424299
C     -2.0152066339     -1.1742574604     3.6010556686


