100

 C     0.957433438     4.4208591218     -0.3118701994
C     1.4258886558     3.9237826959     0.9227159389
C     2.7721031773     3.3532072365     0.9599827399
C     3.1559613895     2.459520274     2.0445287295
C     4.2886670966     1.6179068546     1.8638879956
C     4.4304240536     0.3690440043     2.5519884837
C     2.1436885634     2.0565537904     3.009499391
C     2.356039298     0.8616187508     3.7317440991
C     3.4799808484     0.0042516409     3.4922430445
C     -0.2822170498     1.7934715363     3.5512773677
C     -1.6066092494     2.1768465873     3.3540351491
C     -0.9774676972     3.8524208218     1.6785498344
C     0.4249742882     3.5542589474     1.9324211054
C     0.7758620029     2.5627347128     2.9174143388
C     -1.9600140676     3.2223221724     2.4759863671
C     -0.4461149011     4.4761553069     -0.6274192136
C     -2.7071299752     3.9221169684     -0.1207162277
C     -1.4198566252     4.2879038096     0.3593862409
C     4.4895839397     -1.9277306292     1.683483331
C     3.5043289857     -2.3094894807     2.674144819
C     4.9484860146     -0.6231506444     1.6217186108
C     3.0249455598     -1.3703062072     3.5701088441
C     1.6317327342     -1.3642367656     3.8940171677
C     -1.6257059513     -2.7676648675     2.6575486946
C     -2.9751236839     -2.3751927614     2.6124394064
C     -0.684590925     -1.9257557365     3.3786923332
C     0.7113480629     -2.2791281925     3.3343038138
C     1.2093356861     -3.2362097682     2.3482463173
C     2.5870140261     -3.2320585295     2.0596799897
C     -0.0610848454     0.4141325839     3.965516195
C     1.2471558938     0.0023115119     4.0909962172
C     -2.6980507107     1.2145667009     3.4136055703
C     -2.4357412077     -0.1643629811     3.5786175399
C     -1.0798234833     -0.6049741054     3.7871916706
C     -3.3813624531     -1.0577916622     3.037143904
C     3.5595288222     -2.5178853381     -1.8536114325
C     4.3448025173     -1.9977601903     -0.8025724721
C     4.1891701519     -2.6262209642     0.4638844101
C     3.0561955883     -3.474145628     0.7187178861
C     0.7632523057     -4.038542986     0.0157782379
C     2.1592175772     -3.8322353345     -0.3010940543
C     2.5286448764     -3.4670640244     -1.621229955
C     -1.5361219411     -4.0910736381     -0.7808463142
C     -0.1854651552     -4.0461384488     -1.0845281534
C     -1.1219061219     -3.6575389994     1.6088628615
C     0.2923836176     -3.7666815663     1.3510231303
C     -2.0084708477     -4.0123770222     0.5672453849
C     4.7624982644     -0.6017954093     -0.8783163659
C     5.1257582589     0.0246087135     0.3386776168
C     4.8596746638     1.4204775835     0.5490359173
C     4.2536901804     0.2380853772     -1.9786548459
C     4.1827900436     1.6225139917     -1.7813387845
C     4.4408233177     2.2029009192     -0.4915665756
C     1.9787178998     -2.283472812     -3.5398823896
C     3.1629528364     -1.703820277     -2.9959162227
C     3.374312189     -0.3142393824     -3.0086225774
C     1.0389893976     -1.4856833152     -4.1752156515
C     1.2368106113     -0.0771234829     -4.2401618284
C     2.3541346646     0.53523368     -3.6541592146
C     0.1792689897     -3.5400356296     -2.406293522
C     1.5332298333     -3.3216145486     -2.6625149015
C     -0.3518788916     -1.7584504281     -4.0166650156
C     -0.8126926086     -2.7692858652     -3.1663319006
C     1.6354816635     4.1138518593     -1.5398670961
C     3.5001687898     3.265767697     -0.2543108418
C     2.8700776678     3.519077863     -1.5122041508
C     2.1951888008     1.9295551782     -3.2743987395
C     3.1781585638     2.4577681141     -2.4243826216
C     0.6675872493     3.7059552571     -2.5092907372
C     0.8724633066     2.5786329522     -3.3162713278
C     -0.0860680415     0.5403031079     -4.2252794016
C     -0.3165326787     1.817171419     -3.7071322153
C     -1.6413033169     2.1107602056     -3.1842988514
C     -1.7837870199     3.2824009743     -2.3290863972
C     -0.6305552787     4.0087569005     -1.9664913024
C     -2.8647894906     3.3878561705     -1.4319897044
C     -1.0579766249     -0.4884836818     -4.1129323207
C     -2.3030995905     -0.2760203989     -3.5153989965
C     -2.6423513552     1.0713669326     -3.106779175
C     -4.5093682756     0.1010670915     -1.7774339933
C     -3.7952974906     1.2386488544     -2.2230621386
C     -3.8965982888     2.3798200719     -1.3963095589
C     -3.7068961083     -3.2463073139     -0.8458111696
C     -2.5616707744     -3.510697479     -1.647295596
C     -2.1857515662     -2.6685904481     -2.7080165785
C     -4.5066093293     -2.1390025878     -1.1264537682
C     -4.1148689206     -1.2410946989     -2.1682849067
C     -2.9634510624     -1.4500201119     -2.9415090968
C     -4.7499221797     -1.6594126     1.2645469074
C     -3.8594371288     -2.7705429098     1.5494869162
C     -3.3734046575     -3.5604103703     0.5264688325
C     -5.0630745387     -1.3495219634     -0.0497154805
C     -3.7477694161     1.6760532321     2.5790611088
C     -4.574082374     0.7669458934     1.8515825915
C     -4.457759229     -0.6010722535     2.2076674651
C     -4.4350384516     2.3160839898     -0.0783108952
C     -3.6651576919     3.2511038847     0.7182387899
C     -3.304461378     2.9307438485     2.0029246549
C     -5.0879165608     0.0391758698     -0.4697010736
C     -4.9158291522     1.0974907777     0.4623979922


