100

 C     0.7510982681     -4.5881032017     -0.6470770772
C     1.6624680497     -4.1903351808     0.3443579489
C     2.9662080176     -3.6528854791     -0.0766007873
C     3.7648031396     -2.8672525206     0.8543168694
C     4.6815585138     -1.890443856     0.3645676809
C     3.2185283724     -2.6296646395     2.1414159982
C     -0.6622423636     -4.6208666354     -0.4231101431
C     -1.2505095961     -4.2143000555     0.7983227599
C     -0.3519618865     -3.7520511761     1.8410889712
C     1.0839551888     -3.8157942352     1.6300775697
C     1.909027251     -3.0714540457     2.4946476643
C     -2.2466841755     -2.5326419342     2.8373069945
C     -0.8774406615     -2.8297786487     2.8425665701
C     -3.142818293     -3.0138953016     1.8407849079
C     -2.6508844642     -3.7888388589     0.7609719013
C     -3.3059979855     -3.6062890055     -0.4894372311
C     3.4817789066     -1.3974295957     2.8499431134
C     4.3078722866     -0.3819009722     2.3047028952
C     4.9375080068     -0.6590628917     1.0606370345
C     3.951016113     0.971921956     2.6095010654
C     2.3174284266     -1.0685168197     3.6168705801
C     0.4759788263     0.5461997426     3.8818578452
C     1.8903496792     0.2634866685     3.7800951332
C     2.7679671017     1.2790164074     3.320521403
C     -1.3449284173     2.119953606     3.41736427
C     0.0166435778     1.8991090218     3.5206737071
C     -0.0039005998     -1.887283238     3.5307123976
C     1.3576812225     -2.1082240092     3.4220947311
C     -2.7560682756     -1.2675083865     3.3390287821
C     -1.8765411738     -0.2501238773     3.7894682728
C     -0.4615147982     -0.5326125903     3.8864751835
C     -2.3041469332     1.0814562387     3.6216308914
C     4.1815807443     2.0390846612     1.6511139462
C     4.7037832227     1.7409639573     0.3716451184
C     5.0881290704     0.3951372483     0.0843893511
C     4.2292615766     2.5244562808     -0.7185432427
C     3.1486089364     3.0186523376     1.8116580887
C     2.6519844446     3.7884107526     0.7305466374
C     3.3016839447     3.5996182605     -0.5218605978
C     1.2960791512     4.2781941092     -1.7062403175
C     2.5478006264     3.7249392086     -1.732891018
C     0.8876355793     2.8385403812     2.8241021085
C     2.2560673116     2.5415249979     2.8147751303
C     -1.9003302873     3.0788042889     2.4870756492
C     -1.0786484167     3.8194903168     1.6152100859
C     0.3577306173     3.7566986426     1.8202835603
C     1.2517179006     4.2140561304     0.7717688099
C     0.6582653331     4.6151285703     -0.4490501319
C     3.9200788637     1.9068199018     -1.9799893113
C     4.1081498735     0.537412226     -2.1972748247
C     4.8729730384     -0.1630761685     -1.2138160503
C     4.7080157032     -1.5736862509     -1.0387132555
C     3.9142878604     -2.2722671872     -1.9129785091
C     2.808057634     2.5917600926     -2.5714876152
C     0.4520028577     2.5477962581     -3.2725694613
C     1.7488788689     1.9063541482     -3.2235616416
C     1.8548830361     0.4680154288     -3.4108278336
C     3.1025096967     -0.1727832023     -3.0009037154
C     3.1306437676     -1.5722598049     -2.9279438079
C     -1.9949329803     2.3317914373     -3.209988675
C     -0.7444243554     1.7483701536     -3.517027754
C     0.6531745883     -0.3253080418     -3.6254231641
C     0.3010474319     3.7964866064     -2.6059716441
C     0.9480909101     -4.2046093639     -2.0275264606
C     3.155995995     -3.3984353731     -1.4610575399
C     2.0752721001     -3.5458034484     -2.3924711594
C     -1.3052985032     -4.2901043404     -1.6786483064
C     -0.3141272878     -3.8124249065     -2.5849844406
C     -2.5574797853     -3.7372222591     -1.7027278739
C     -0.6709629736     0.3039413138     -3.6240318329
C     0.7271943882     -1.7690131695     -3.5111051919
C     1.9791446795     -2.3507884332     -3.2066127261
C     -3.1454004707     1.5547455236     -2.9222019927
C     -3.1175112865     0.1549279081     -2.9878397675
C     -1.8716597821     -0.4881028691     -3.3998006353
C     -1.7648745233     -1.9255321858     -3.2054388576
C     -0.4680662276     -2.5671998205     -3.2570811954
C     -2.8211416565     -2.6078002041     -2.5455717117
C     -3.9246333882     2.2600286756     -1.9076500341
C     -4.7142857153     1.5654892112     -1.0260197598
C     -4.8801504655     0.1541073702     -1.1935239826
C     -4.1195024038     -0.5510257882     -2.1759478437
C     -3.930378572     -1.9198352658     -1.9523286923
C     -0.9586062714     4.1912331743     -2.0447246679
C     -3.1641606304     3.3878090137     -1.4644419681
C     -2.0873133735     3.5307011171     -2.4013895771
C     -3.2105802438     2.6360496635     2.1421358003
C     -4.681456653     1.8889568578     0.3751730181
C     -3.7627385512     2.8678460153     0.8560290689
C     -2.9683555491     3.6490074188     -0.0819500806
C     -1.6626609803     4.1881892227     0.3307228726
C     -0.7554593221     4.581358264     -0.6667396804
C     -3.94297252     -0.9635889796     2.6319804856
C     -4.9345424111     0.6603095024     1.0786846245
C     -4.2999512297     0.3888807559     2.3216687179
C     -3.4711597695     1.4067538271     2.8580904025
C     -4.2341857268     -2.5311762     -0.6872987284
C     -5.089832712     -0.3980110764     0.1089474357
C     -4.7043096155     -1.7425593751     0.4012288521
C     -4.1772464362     -2.0346340043     1.6799196103


