100

 C     -5.1013661409     0.002848817     -0.6938422374
C     -3.4166492308     3.2194805471     1.4192910307
C     -4.3208346183     2.3740092291     0.7320745028
C     -4.6486136578     1.1727624409     1.4032828877
C     -5.0914415257     -0.0026248239     0.685639926
C     -1.4106316162     3.4381880155     2.5790402945
C     -2.6673046495     2.7506298489     2.5398808663
C     -2.7613124557     1.4206899719     3.0121695778
C     -3.8682716975     0.7083175747     2.5111720529
C     0.9481793423     3.4123269859     2.7360884708
C     -0.2722363505     2.8271629013     3.1352807665
C     -3.416319082     -3.2302795339     1.3936974604
C     -4.3205904377     -2.3794720876     0.7132123628
C     -4.6484911826     -1.1836240937     1.3939322303
C     -2.6670214773     -2.7702558173     2.5179698948
C     -2.7611630188     -1.4441154752     3.0007980703
C     -3.8681968978     -0.7279024874     2.5054725689
C     -1.5570468718     -0.7318840606     3.4708419534
C     -1.557120812     0.7048734749     3.4765448991
C     -0.3024714889     1.4236742019     3.5576868339
C     -4.3101419802     -2.3719246867     -0.7521477072
C     -4.6583111499     -1.1741045099     -1.4156900827
C     -2.5534608167     -4.1468063504     0.6777864665
C     -2.505558081     -4.1121835618     -0.6996933665
C     -3.3605547711     -3.2005879025     -1.4237429559
C     -1.3321854399     -4.319328864     1.410522098
C     -0.0912751791     -4.5219947986     0.7531270815
C     1.0351342179     -4.2233659077     1.5186443263
C     -0.2719447773     -2.8512620667     3.1127456291
C     -1.4102743491     -3.4579714888     2.5516704477
C     3.3941431199     -0.708719193     3.0451747701
C     2.2095536881     -1.4446222109     3.3607282988
C     2.1802632832     -2.754852035     2.8701545447
C     0.9485320019     -3.4331208249     2.7089255554
C     2.1799786663     2.732927624     2.8919295783
C     2.2094049168     1.4188519328     3.3720910094
C     0.9474322466     0.7079423969     3.6576532256
C     0.9475079012     -0.736130978     3.651919084
C     -0.3023210333     -1.4511750513     3.5462727798
C     3.3940681296     0.6855932535     3.0507066017
C     -2.6199410178     -2.7263263051     -2.542985472
C     -2.8029787877     -1.4208242483     -3.0561926001
C     -3.9083840151     -0.7084992907     -2.5434388611
C     -3.9084603754     0.728974342     -2.5377347851
C     -2.8031281974     1.4454601374     -3.0448201805
C     -2.6202250856     2.7468673735     -2.5212704219
C     -0.4027108053     1.4566634572     -3.7029388584
C     0.7311456257     0.7269232399     -4.0417213248
C     -0.4025617602     -1.4265589905     -3.7143786598
C     -1.6583673409     -0.7068241518     -3.6016695242
C     -1.6584427843     0.7359282164     -3.5959459157
C     0.7312198896     -0.6940374974     -4.0473563533
C     -0.006540214     -4.3812569049     -0.7100514416
C     -1.2262951673     -4.2005937529     -1.3841611804
C     -1.3089679477     -3.3456566215     -2.5181590814
C     1.1211636495     -3.0883154736     -2.5315272788
C     -0.1869361254     -2.7162975514     -3.0512868518
C     1.2068350297     -3.8902687757     -1.3319983762
C     -4.6584344331     1.1855393453     -1.4063279132
C     -3.3608852189     3.212156758     -1.3982975555
C     -4.3103851391     2.3780919335     -0.7332991334
C     -2.505982187     4.1180645925     -0.6670338457
C     -2.5538866739     4.1417492227     0.710677626
C     1.0346995307     4.2120115126     1.5521168762
C     -1.332630482     4.3085833144     1.4447624555
C     -0.091742214     4.5165869903     0.7889947546
C     -1.2267270236     4.2120316987     -1.350777145
C     1.2064353101     3.9015505935     -1.3010758932
C     -0.006995718     4.3874715304     -0.675255736
C     3.5349679323     3.0930297599     -0.9371976062
C     2.4267654452     3.8181224574     -0.4859538898
C     2.3122048787     3.9625421597     0.942940706
C     -0.1872190067     2.7411209424     -3.0296320996
C     -1.30931444     3.3661136361     -2.4915286885
C     2.0621471765     1.171552198     -3.7148672207
C     2.2729640321     2.3271022284     -2.9330993712
C     1.1208443471     3.1091356109     -2.5069316871
C     3.474567002     2.3526693637     -2.173059452
C     4.8861877202     1.2226506664     -0.7193607591
C     4.4221373702     2.3888418788     -0.0422637929
C     2.9028811296     0.0147858037     -3.5981226603
C     4.336169001     -1.210021242     -2.0756793908
C     4.0240112877     0.0113908738     -2.7284598615
C     4.3360440795     1.2276193102     -2.0660078994
C     2.3126140329     -3.9689360303     0.9114666345
C     2.4271599949     -3.8131778446     -0.5162363523
C     3.5352862185     -3.0844168076     -0.9617127241
C     3.4748103485     -2.334276996     -2.1916573141
C     2.273203377     -2.3028041528     -2.9514714573
C     2.0622665779     -1.1411077204     -3.7240393676
C     4.3576146109     -1.161023911     2.0473402224
C     4.1286629171     -2.3488160264     1.3311352198
C     3.0741392724     -3.1815694633     1.7961694909
C     4.4223828776     -2.3872607629     -0.0612153957
C     3.0738125756     3.1682528888     1.8213639567
C     4.1284183716     2.3393234126     1.3497376612
C     4.3574865062     1.1459040093     2.0564909811
C     5.1263476747     0.0006837501     -0.0153215233
C     4.897110371     -0.0049499764     1.4015070396
C     4.8863092721     -1.2156851176     -0.7290325194


