100

 C     -0.9996962595     -2.8111784848     -3.4551037979
C     0.0977913549     -1.9940040098     -3.8117710938
C     1.402381138     -2.1996132315     -3.2055469487
C     2.3421559193     -1.0907095231     -3.2446987241
C     3.5100152913     -1.2005391111     -2.4832991025
C     -0.2321969     -0.7235059505     -4.3235035127
C     -1.5582891391     -0.1979829819     -4.2204844089
C     -2.6018658587     -0.9186157403     -3.6216460603
C     -2.333445009     -2.2977435695     -3.3971085793
C     0.6772859243     0.3880566113     -4.2404962936
C     1.9512655527     0.2532193224     -3.655417898
C     3.7064408412     1.2609036485     -2.1850083687
C     4.2088565744     -0.0419140474     -1.997413507
C     4.9299545364     -0.43695036     -0.8030067071
C     5.0705548539     0.4495865027     0.2514779938
C     1.8085325575     2.6811096482     -3.0285472601
C     2.5666651796     1.4359407771     -3.0728790083
C     2.1327527601     3.6234330761     -2.0149958724
C     3.1308537934     3.3408609737     -1.021729659
C     3.9657767606     2.2229839453     -1.1179192758
C     4.5483560446     1.7872894641     0.1069273239
C     -0.0754168082     1.5909899655     -4.1755316503
C     -0.5108261958     3.6150738841     -2.9867931911
C     0.4497694047     2.7388208181     -3.5528727538
C     -4.2628358659     -0.9780927217     -1.8215121432
C     -3.5515923624     -0.2037199466     -2.7581560495
C     -3.3771275037     1.2113972218     -2.4743159725
C     -2.3558151466     1.9404666468     -3.2379610636
C     -1.4621659138     1.2237489163     -4.0650503482
C     -1.8730891839     3.1863188385     -2.7764694322
C     4.4662093061     -2.2716748583     0.7555862194
C     4.5233306536     -1.3277294068     1.8532539493
C     4.6280192949     -1.8285822229     -0.543021137
C     4.8237275995     0.0073305814     1.6041472416
C     4.0654725154     1.02947563     2.2546669722
C     3.4700821888     -1.6564614719     2.7552223584
C     2.681307468     -0.6715371158     3.3800231295
C     2.9936455233     0.7380592943     3.1118045016
C     2.6478057098     3.8135561408     0.2412128768
C     2.9143916927     3.1039800672     1.4254928471
C     3.9742497742     2.1667691553     1.3520349805
C     1.8695681303     2.9428389001     2.4119913325
C     1.9636318498     1.7685379248     3.28451255
C     0.8356924475     1.3852567941     3.9921998187
C     1.4181676849     -4.3524048143     0.4172929268
C     2.6383224337     -3.7977769863     0.0048271765
C     3.4364304254     -3.2410766094     1.0407227787
C     2.8508156174     -2.885308155     2.2948861615
C     0.5252013018     -0.0103337076     4.2543095733
C     1.3409022623     -1.0512995881     3.81119074
C     0.7053555452     -2.2950772831     3.3873460938
C     1.5053651586     -3.2005647763     2.5984106241
C     0.870473004     -4.088411423     1.7071951444
C     2.7297257126     -3.252458661     -1.3548949248
C     3.7272804146     -2.2909180379     -1.5844496336
C     0.3295722299     -4.5353260159     -0.49691211
C     0.3972696649     -4.0342808004     -1.8234839758
C     1.5684658412     -3.2541169853     -2.2304661845
C     -0.850643568     -3.8237046509     -2.4479579129
C     -0.8900877155     -4.5160582227     0.2499310059
C     -2.117400494     -4.1457730185     -0.334538211
C     -2.0919757171     -3.9439956278     -1.7415005541
C     -3.9600374638     -2.3956744142     -1.5984607204
C     -3.0084645688     -3.025773488     -2.3613068075
C     -3.4587901083     -2.0186059048     2.4564764851
C     -2.7268110691     -3.0585341674     1.8518089719
C     -3.0908268707     -3.4548811474     0.4902101172
C     -4.0720194541     -2.6767954978     -0.1962025278
C     -0.8815996014     -0.1361075334     4.3279742079
C     -1.5326362037     -1.3087621487     3.8576860436
C     -0.7397959576     -2.3945318499     3.3282207489
C     -1.3780184906     -3.3134445709     2.3717525184
C     -0.5561428392     -4.141662878     1.5995469732
C     -2.8752474128     -1.1472839739     3.4293418105
C     -4.3344492914     0.1355277072     2.1497482909
C     -4.409437568     -1.2322161148     1.7147389908
C     -4.645200853     -1.5133445739     0.3979936406
C     -3.7478833689     2.4043239758     1.6044070933
C     -4.3752805175     1.2090383084     1.2077990167
C     -1.4588431762     1.1767154527     4.1797641631
C     -2.9378402526     2.4876866693     2.7877701977
C     -2.7292845275     1.3418067021     3.5975425093
C     -3.4611790854     0.1661218028     3.2788221294
C     1.3818362001     4.4497924938     0.0251706923
C     0.3472097984     4.3427195478     0.9645096508
C     0.6005832532     3.6008396588     2.2107146229
C     -1.8676394603     3.3988085146     2.5095066399
C     -0.5460587361     3.1774187341     2.9988895812
C     -0.3960030947     2.1001353735     3.9062546023
C     -1.2570633057     4.4952909304     -0.9535433415
C     -0.1647654415     4.4360075961     -1.871529613
C     1.1350337149     4.4478983706     -1.4001192376
C     -2.0923327112     3.9715387427     1.2187230019
C     -1.0246520041     4.4586506878     0.4429838092
C     -4.7045476355     -0.4346065439     -0.5895859802
C     -4.4677390795     0.9042747957     -0.2334056039
C     -3.8392767082     1.764769591     -1.2217714144
C     -3.2234592611     3.3160690618     0.6326921966
C     -3.275566063     3.0379972806     -0.756389221
C     -2.3365910815     3.7349881784     -1.5420272323


