100

 C     -2.0947670186     3.2866749931     2.5837785874
C     -2.6574202183     3.3747679317     1.3046654859
C     -1.8808033513     4.0212730762     0.2345070727
C     -0.7584357402     3.7586148388     2.8391158216
C     -0.0594807146     4.4043564911     1.8573007035
C     -0.6420003268     4.5820246072     0.5528939179
C     -0.0776007678     2.829098951     3.6970626752
C     -2.0810400867     3.6213286194     -1.1511109783
C     -3.2299475284     2.8788975978     -1.4290578063
C     0.4394786036     4.6241233334     -0.4008396453
C     0.3229892973     4.0927977827     -1.7060706557
C     -0.9736653833     3.5670955286     -2.0988989882
C     -1.041152257     2.6010412487     -3.1712994195
C     0.1657573771     2.1954948873     -3.789814803
C     1.6593725524     4.4738644899     0.342826802
C     2.7745979441     3.9200519799     -0.2379240576
C     2.7708644045     3.5984495149     -1.6245090918
C     1.5508892548     3.6350563803     -2.3571780114
C     1.4239134544     2.704868676     -3.4231347522
C     1.3475245757     4.1563625884     1.706531521
C     1.9926232973     3.0895725574     2.3876369515
C     1.2468220525     2.3923982417     3.421341022
C     -2.1710133262     1.7167166728     -3.3317863359
C     -3.3132343947     1.9929355792     -2.5527060634
C     -4.2909189568     0.9855211979     -2.2499441549
C     -1.980964811     0.3461109993     -3.8236810811
C     -2.9635511884     -0.6062773607     -3.5277070268
C     -4.1259405151     -0.2944294497     -2.7416050794
C     0.3567777752     0.82505693     -4.2379751803
C     -0.6329499893     -0.1417030487     -4.11688853
C     -0.2322602918     -1.524619115     -3.8452180078
C     -1.2596874154     -2.4264147038     -3.3936471378
C     -2.5928758621     -1.977549106     -3.2518382954
C     -0.9043406676     -3.5438644794     -2.6091256567
C     1.7418865045     0.5053837183     -4.1300008967
C     3.3936139044     -0.9118941784     -3.0871678706
C     2.1536185663     -0.8043636499     -3.7607855544
C     1.1544747126     -1.8384880061     -3.5715779456
C     1.4914509487     -2.984231889     -2.7160093283
C     0.4498823887     -3.8071275152     -2.2739537476
C     3.7200557993     2.5239709962     -1.8010349179
C     3.5553863989     1.5581825254     -2.8299568141
C     2.4157435021     1.6696938635     -3.6561816333
C     4.0645337907     0.2545839594     -2.5909675683
C     -4.9800716492     0.0876301557     -0.0654053834
C     -4.7794338836     -1.2534540975     -0.5798379448
C     -4.750724585     1.1915423472     -0.8914480282
C     -4.3974385922     -1.4391410999     -1.8930758251
C     -3.4361171273     -2.4627073074     -2.2049316319
C     -2.9284621473     -3.332330267     -1.1920475213
C     -1.7172599307     -3.9583278857     -1.5021838237
C     -3.6937231483     2.4139458953     0.9787167896
C     -3.9220951085     1.2522817266     1.8397421621
C     -4.0812976687     2.3349554819     -0.3710379215
C     -4.5382226723     0.1155315602     1.2856559364
C     -2.712935006     -0.3106617202     3.4251674567
C     -3.1023741009     1.0457610332     3.0175874213
C     -2.3052647705     2.1274275608     3.427127597
C     -1.5801320612     -0.4542466724     4.2374683226
C     -0.7261163979     0.6561289149     4.5411712317
C     -1.0863483953     1.9197397292     4.1572042443
C     -4.0757985435     -1.2271511957     1.6275841289
C     -2.2550601209     -2.6310347878     2.4704383656
C     -3.1019344953     -1.4589247833     2.607023209
C     0.0077446487     -3.5451360294     2.9688868676
C     -1.0745188819     -2.7118974849     3.3201209256
C     -0.7465786611     -1.6172378417     4.1500378253
C     -3.2520262729     -3.0778184173     0.217810583
C     -4.1910457006     -2.0564232754     0.4780041134
C     -0.858635808     -4.4767403587     -0.4778522422
C     -1.1440667086     -4.2377264097     0.8931472878
C     -2.3066367527     -3.4246298052     1.2580751545
C     -0.0261404419     -4.3138548695     1.7520730905
C     2.1631946484     -3.769776245     2.2018693299
C     1.363159142     -3.1752923012     3.2315241082
C     1.6835162894     -1.8884459691     3.7438865798
C     0.6152170534     -1.1940423976     4.3171383723
C     3.2822870665     -3.1155160515     1.7622535257
C     0.4755821748     -4.4686854433     -0.9793554919
C     1.5904027426     -4.3803984228     -0.1319696876
C     1.3114269384     -4.4479892625     1.2598065123
C     4.5204856147     -1.4855368158     -1.149210065
C     3.6668886007     -2.0037005138     -2.1848261439
C     2.7327606151     -3.0151247508     -1.9312345088
C     4.4501728516     -2.0072245519     0.118683114
C     3.659941648     -3.1663792284     0.3607285264
C     2.7739343931     -3.6779782422     -0.619302304
C     4.1941303082     2.1315685884     -0.5110749163
C     4.5753584163     0.8039864536     -0.2240260548
C     4.67877069     -0.0792246225     -1.3310730483
C     0.6442541171     0.235578634     4.4346761517
C     1.6187884657     1.0253530615     3.7810817146
C     2.7871584835     -1.1142248109     3.1804950112
C     2.7184005285     0.3408936267     3.0934486005
C     3.462387074     1.0375836424     2.0634440479
C     3.1115872986     2.4183215174     1.724683543
C     3.5476866055     2.9387601808     0.4835375528
C     3.6255147592     -1.8025317594     2.2785734673
C     4.3473304402     -1.1177341963     1.2664513005
C     4.2751017246     0.2798815278     1.113714847


