100

 C     -4.0915106507     -1.5587523787     1.4751572491
C     -4.8308735265     -0.6085455833     0.7397348998
C     -1.9517812161     -3.176437991     2.4541165202
C     -2.1344838102     -1.9066856259     3.0315162447
C     -3.2621493536     -1.0913074039     2.5938808117
C     -3.2792107871     0.3046490186     2.9433532985
C     -2.1925055596     0.8099771624     3.7182713186
C     -0.673763314     -3.8064152097     2.4111778301
C     0.5085857084     -3.1820403571     2.8815252552
C     0.370054707     -1.8902595908     3.5127349672
C     -0.9564035906     -1.3184203595     3.648747495
C     -1.0498291038     0.0333461383     4.0084265579
C     2.7624592331     -1.4772282559     3.1104743845
C     1.5348476443     -1.0090219082     3.583064022
C     2.8951869705     -2.7367121903     2.4430440454
C     1.7746217365     -3.5815883625     2.2707862333
C     1.7579044486     -4.3650148218     1.0833277252
C     -4.0008581632     1.2678259191     2.1227723982
C     -4.7256366695     0.7969586928     1.0146062216
C     -1.7563154472     2.1875361656     3.6214534163
C     -2.3975895256     3.0615272492     2.7855332287
C     -3.5290684896     2.6077873964     2.0193706739
C     0.4664723162     4.5486385501     1.0048199865
C     -1.6235742607     3.9977469174     2.0090274505
C     -0.2087812781     4.0561905764     2.1298344378
C     -0.3113881583     2.2283870464     3.7490049433
C     1.8553996324     2.6925313331     2.7042537128
C     0.4944939631     3.1066697645     3.0022396201
C     3.7324826976     2.800304744     1.0631729684
C     2.5757766817     3.3896127182     1.6285203873
C     1.8597276734     4.2685628396     0.7818897655
C     1.3809059732     0.4451663511     3.7071733867
C     0.1122938345     0.9047601015     4.034573539
C     3.7544235133     -0.5724147981     2.5771142388
C     3.5411767824     0.8368329226     2.5361888446
C     2.3134446129     1.3852552922     3.1088162105
C     4.2379386146     1.5469094696     1.5480066938
C     -3.4524581691     3.2628436278     0.7604021666
C     -3.9428641401     2.6694393006     -0.4225787931
C     -4.7496357524     1.5181274357     -0.2326157943
C     -4.955098037     0.5599476905     -1.2831286647
C     -4.2849906516     0.7232381847     -2.4815936262
C     -2.2687620181     4.0953587681     0.7388265852
C     -0.1775373765     4.6455895492     -0.2670647031
C     -1.5237988645     4.2619810373     -0.4536634571
C     -1.9028602555     3.5286633201     -1.6582470379
C     -3.168080546     2.8119470542     -1.6601358949
C     -3.3751312139     1.8351181366     -2.6515029038
C     -4.5937998997     -1.8645322549     -1.3622026639
C     -3.8882748193     -1.7085610194     -2.6215809713
C     -5.0646802202     -0.7581024228     -0.6850701136
C     -3.7098445458     -0.4320989359     -3.1485048163
C     -2.4463083583     -0.0631601876     -3.6778586494
C     -1.3346031033     -0.9411925173     -3.6548548517
C     0.1034957109     1.1042727842     -3.7533755896
C     1.3590744144     1.6766925785     -3.6780180212
C     0.8156712596     4.4180084573     -1.2707404755
C     0.4950820552     3.6509050797     -2.4049313418
C     -0.860908412     3.150235824     -2.5795976278
C     -1.0287412425     1.9490927564     -3.3794416041
C     -2.2788579966     1.3592746907     -3.4333624347
C     1.5721492759     2.9507301442     -3.0214738244
C     -2.7265836121     -3.5996980312     1.3107948432
C     -3.7509865386     -2.7985935393     0.7848320144
C     -3.9631556924     -2.9179079917     -0.6211672938
C     -2.9356083139     -3.4658846224     -1.4522437298
C     -1.8366901287     -4.1512037068     -0.9275765543
C     -1.8681120556     -4.379088624     0.4786076766
C     0.5109223828     -4.7728344191     0.5072783491
C     -0.6551582814     -4.6053841199     1.2046056232
C     -0.0167224336     -0.3641317115     -3.7522728425
C     -1.511705588     -2.2782972874     -3.1140521342
C     -2.8016377616     -2.6305343304     -2.6287654303
C     0.5613952955     -4.5253390429     -0.9260310166
C     -0.5559806945     -4.051837693     -1.6200225193
C     1.1319437809     -1.1724605857     -3.4900455807
C     0.9616279969     -2.51326723     -2.9103549303
C     -0.3559527705     -3.0239890247     -2.6522723139
C     2.5349583233     0.887599112     -3.549762134
C     2.4437467434     -0.5244593344     -3.426789815
C     3.5200840429     -1.1487275502     -2.765271034
C     3.3432586787     -2.4230883254     -2.1413040707
C     2.1029059359     -3.1172960705     -2.2291058193
C     1.8757494204     -4.0805680141     -1.2259427249
C     2.1025892596     4.3009191177     -0.6310221843
C     3.1446671198     3.5441490768     -1.2129547158
C     2.8788329893     2.9277571391     -2.475874281
C     4.4247839245     1.0240846545     -1.9571400362
C     3.4919693536     1.6575701771     -2.8180465504
C     4.4909739613     -0.398121275     -2.0148359456
C     4.7076564636     1.6568013848     -0.7079242177
C     4.0341015612     2.8847767686     -0.3283741711
C     4.4630123857     -1.2557136935     1.55547367
C     4.8265442508     -1.1800893194     -0.8646525606
C     4.9486335218     -0.5576797037     0.4061108002
C     4.9013619251     0.869083869     0.4610296917
C     2.6506530314     -4.0678238798     0.0039495276
C     4.1614957096     -2.4611869401     -0.9818967073
C     3.7448988642     -3.1916942486     0.1689712448
C     3.9042360157     -2.5875915988     1.4458719992


