100

 C     -4.8701425189     -1.8098636658     0.7747477916
C     -1.4178126914     -3.9108582493     1.8795512202
C     -2.6812046687     -3.3492206737     1.6937297915
C     -3.2938559539     -3.6248950909     0.4441458538
C     -4.3812914745     -2.8274281256     -0.0280750485
C     -0.6633841674     -4.472020257     0.8050859718
C     -1.1038585077     -4.2788403543     -0.5237120576
C     -2.4634325698     -3.9625220703     -0.6788324243
C     1.2667304385     -3.9195552792     -1.1822148619
C     -0.1487736531     -3.8574908594     -1.5219870617
C     2.1626770893     -3.3135400991     -2.0625324708
C     1.7165660797     -4.1413672647     0.2001419833
C     2.9829021621     -3.5561095977     0.66314698
C     0.7266966792     -4.4084140761     1.155115931
C     3.0665341581     -3.150658444     2.0166133427
C     -5.2516533777     -0.4101604805     -1.2108206344
C     -4.5556540448     -1.3950853935     -2.003760259
C     -5.388094357     -0.6107199738     0.1719826791
C     -4.1866777792     -2.6036763957     -1.4469801132
C     -2.9363080408     -3.2144734811     -1.81318254
C     0.3432504429     -2.2034322847     -3.3174741721
C     1.7097163942     -2.5076455671     -3.1519592624
C     -0.6090458391     -2.9759214376     -2.5717012413
C     -2.0062390791     -2.5729879078     -2.6512443169
C     -2.3576318002     -1.245154615     -3.1666374528
C     -3.6212383475     -0.7101421114     -2.8678755245
C     -4.8994264169     1.7494255322     0.5883448023
C     -4.7732459198     1.9683347614     -0.8488857488
C     -5.1005730183     0.4801912816     1.0771592257
C     -4.849160344     0.8876259414     -1.7050141868
C     -3.803949057     0.7078344684     -2.6851023553
C     -0.3052484663     1.9597910973     -3.2729662009
C     0.8890477492     1.4269288749     -3.7503459636
C     -1.4777091572     1.1032321992     -3.3219589423
C     -2.7228569165     1.6077683595     -2.7939393082
C     -2.7260395114     2.8253299578     -1.9927171294
C     -3.7776031521     2.977808232     -1.0530752413
C     -0.0095157026     -0.8660789123     -3.796868163
C     -1.3138708189     -0.3168587815     -3.5417750488
C     1.027843279     0.0367775756     -4.0652863464
C     -2.3292195086     4.1962962038     0.4672379322
C     -3.9839309242     2.6218974874     1.2582328324
C     -3.4868226649     3.5219501423     0.2521432246
C     -1.4711377672     3.5473085242     -1.7608907315
C     -0.2465040479     3.1307932822     -2.3949743156
C     -1.3624390076     4.3470881195     -0.5991660345
C     -1.6318617103     4.0364110922     1.7036903466
C     -1.9002594999     2.9105536548     2.5332383958
C     -3.1118244005     2.16310115     2.2852540605
C     -3.1782842365     0.7579103348     2.676778739
C     -4.2432199708     -0.0126241321     2.1407937974
C     -4.1366623516     -1.4252675128     1.9808614365
C     -1.9975195645     0.0659489966     3.1828973128
C     -1.9334451265     -1.3701214095     3.0894238994
C     -2.9943301255     -2.1133230564     2.406188104
C     -0.2992006467     4.4829293914     1.4493438651
C     0.7129444612     4.0289650162     2.2350750317
C     0.4731583863     2.936248032     3.152678233
C     -0.7769487067     2.2658681742     3.2003703748
C     -0.7760558382     0.8408337758     3.4638656816
C     0.4885494634     0.1678244237     3.6749248291
C     -0.6697035912     -2.0453871895     3.3361917781
C     -0.4971783857     -3.3591521652     2.8330001204
C     2.0369133972     3.9240120002     1.6966412171
C     3.4016007543     3.443225344     -0.2125500582
C     2.2565649493     4.0702122911     0.2893551057
C     2.1765009451     1.928579929     -3.338638023
C     2.2601051544     2.9456476703     -2.3678098289
C     1.0367669646     3.5656257894     -1.8772579286
C     1.1005352246     4.2549501686     -0.5969484687
C     -0.1079904406     4.616959133     0.0054655986
C     3.4359352091     2.9331628048     -1.5682485501
C     1.7057625589     2.2569540746     3.2812997657
C     1.7571065139     0.8864320094     3.5377972109
C     0.5265146919     -1.2803733261     3.6610929306
C     1.7876979936     -1.9080671524     3.5368122455
C     1.9163472409     -3.1699995458     2.8674595541
C     0.7938345786     -3.8505599645     2.4794317288
C     4.0254876758     0.8564049171     2.3535218621
C     3.0140102691     0.2120906732     3.2075975933
C     3.003807674     -1.1779755212     3.2730659493
C     4.8443127689     0.0394433878     1.5426324663
C     4.882505787     1.6813030972     -0.2765497805
C     4.2336891601     2.6163733614     0.6019004716
C     3.8010547938     2.2159539109     1.9004179267
C     2.7045394248     2.9129736994     2.4329619757
C     5.1951412731     0.4281625448     0.1894358755
C     3.1268731888     0.8621860005     -3.41352093
C     4.1856203405     0.7401914738     -2.4803055495
C     4.3716847675     1.8587532453     -1.6209206461
C     3.8233641096     -1.7247093113     -2.4830653707
C     2.7497947024     -1.5566381459     -3.4361331416
C     2.4119605712     -0.3020155345     -3.8826174704
C     5.0675604649     -0.7329971053     -0.6777766332
C     4.548870774     -0.5999554181     -1.9930949312
C     3.8253270043     -1.9852914164     2.4027404128
C     4.6774210132     -1.3802844707     1.5162533981
C     4.7419720586     -1.8537416079     0.1474691396
C     3.8658624411     -2.8872382089     -0.2903460795
C     3.4659926452     -2.8194199648     -1.6437694481


