100

 C     4.9781531199     -1.733985331     0.3726794307
C     4.526754366     -1.7517514149     1.74950212
C     5.3196871947     -0.5357344824     -0.2349978499
C     4.4826370783     -0.5800259549     2.4827895008
C     3.3881637123     -0.3481903655     3.3709885009
C     2.6319089457     -3.1350226245     -2.1111802702
C     3.7669126204     -2.4238530634     -1.6820841801
C     4.2083284741     -2.6961152085     -0.3585401725
C     3.3218941674     -3.3459667296     0.5750109559
C     0.9708625291     -3.8986607665     1.0745983996
C     2.1136306871     -3.9218099825     0.1721121952
C     1.8904291565     -3.9669787797     -1.2348185885
C     -1.4541477622     -4.0417966202     1.3095835791
C     -0.3172802884     -4.2860912945     0.5331730563
C     0.9167758274     0.7309996704     4.1126747639
C     0.9856626612     -0.66305101     3.8674680888
C     2.2691654577     -1.2244947534     3.4471756866
C     2.2938410664     -2.4352509878     2.6384410344
C     3.4402965727     -2.6858780418     1.8493873273
C     -0.2479165262     -1.3486599056     3.6006871182
C     -0.1842463269     -2.6343811665     2.8987592897
C     1.0449722164     -3.0925361244     2.2751820495
C     -1.3839976466     -3.207408653     2.4628981504
C     4.0267330432     -1.1307746515     -2.2920122907
C     4.8799732176     -0.2518606736     -1.5825458579
C     4.6812053135     1.1702737031     -1.654531527
C     3.0176293585     -0.5596256633     -3.2070798188
C     3.004775406     0.8218942104     -3.3895994175
C     3.8101853925     1.6923060961     -2.5682412108
C     0.4428635596     -3.2286236545     -2.8944436936
C     1.6922893426     -2.5892418165     -3.0789838499
C     1.7670504382     -1.2620881885     -3.5053955047
C     -0.7775467988     -2.5798945018     -3.1857238534
C     -0.7674571342     -1.1823185776     -3.5851194507
C     0.5036483735     -0.5394234043     -3.7754402
C     0.5381171485     0.9045969236     -3.8551276197
C     1.7969992866     1.5368211894     -3.7295684459
C     -3.1745296879     -1.0554820654     -2.8387891425
C     -1.9965172208     -0.3925323889     -3.389063074
C     -1.9357984448     1.0394589619     -3.3476939094
C     -4.2040684687     -0.2930011246     -2.2353604954
C     -3.118181022     -2.4039799399     -2.410513625
C     -1.9065027556     -3.1549763516     -2.5650019859
C     -0.5183370675     -4.3699666763     -0.9206650092
C     0.5645064342     -4.0951317263     -1.7560147641
C     -1.7926187941     -4.0652539846     -1.4704584166
C     0.7820455242     3.5287449678     -2.7933177397
C     3.0356317235     2.8533625815     -2.2363141719
C     1.9055033199     2.8247030648     -3.1186785459
C     -3.0118387211     1.8101136489     -2.6926905941
C     -0.6663828042     1.6907111949     -3.6043755866
C     -0.4999567676     3.0286740634     -3.1566470637
C     -4.133720287     1.1335618105     -2.1956556966
C     0.6886195073     4.1641465927     -1.503078115
C     1.6428349883     3.9260268421     -0.496898614
C     2.9152288234     3.3057300238     -0.8979967382
C     3.796220293     2.7073925197     0.0990269032
C     4.7560543724     1.7473924226     -0.332721242
C     5.2432079149     0.7037076158     0.5260037318
C     3.372464321     2.682110228     1.4904259144
C     3.9644070764     1.7054515176     2.3389757878
C     4.8467025676     0.6841142353     1.8501067357
C     3.1992252374     1.08626343     3.395053703
C     1.997340721     1.6046815717     3.7464532831
C     1.1730423096     3.8307168049     0.8881473801
C     2.0570904444     3.2285265711     1.8619757661
C     1.465771787     2.7491162847     3.0561211146
C     -0.7071953754     4.2782791813     -1.2165288521
C     -2.5603860451     3.9458813195     0.2497913113
C     -1.1834718864     4.2376277883     0.1057080751
C     -0.2509856958     3.9459622138     1.1746003835
C     -0.8189350626     3.315965882     2.3547941392
C     0.0605554485     2.7092469354     3.2390147083
C     -2.7078154931     3.0950023288     -2.0657601377
C     -1.4423748728     3.6428787092     -2.2696995844
C     -3.3456263065     3.4720329496     -0.8513722276
C     -4.3041394897     2.6535223017     1.1149366098
C     -3.1002370544     3.3535558935     1.4553203472
C     -2.2151817537     2.8845732225     2.4358493576
C     -4.6436164875     1.492253296     1.7960010883
C     -3.7594676302     0.9939029254     2.8054181688
C     -2.5576676299     1.6380257935     3.1285301339
C     -5.289272363     0.3999597811     -0.2979318208
C     -4.8587595468     1.5814127177     -1.0172591427
C     -4.4355973475     2.700124667     -0.3247768481
C     -5.1902450757     0.3557314516     1.0864414019
C     -3.8003402364     -2.8645040179     -1.2470802941
C     -4.6013727729     -1.9914942547     -0.4661519858
C     -4.9250918033     -0.7604125141     -1.078409538
C     -3.523089609     -2.9424805076     1.5523915313
C     -2.7788160377     -3.862926664     0.7324096688
C     -2.9427607474     -3.8580300148     -0.6374704446
C     -4.7077423535     -0.8530394182     1.7315311922
C     -4.4732570713     -2.0416018383     0.9954711808
C     -0.2783166917     1.4570617562     3.9098468359
C     -1.4958429796     0.8241557041     3.7089679242
C     -1.5028450779     -0.6241189903     3.6448854046
C     -3.829049073     -0.4544857084     2.7884107767
C     -2.7195086336     -1.2495492182     3.1708492381
C     -2.6553458197     -2.5377637683     2.6096381633


