100

 C     5.0860730121     0.7524071129     -2.2852328374
C     4.3027521818     -0.2366836111     -2.9958636735
C     5.8364594518     0.3816518552     -1.1647358039
C     4.3022712203     -1.5579299505     -2.5742473704
C     3.0580949144     -2.2953867466     -2.5631156324
C     -0.6200491258     -0.3534924489     -3.4381954021
C     -0.6204804076     -1.7159306099     -3.0036113292
C     1.8523827759     -1.73950377     -3.0343218255
C     1.8528598281     -0.3535345467     -3.4764865451
C     3.0590351238     0.3717481046     -3.4141975468
C     0.6197770814     -3.1583431921     -1.4226346554
C     0.6204400195     -2.3117170264     -2.5751493555
C     -3.0594604423     -3.3679668759     -0.7291441778
C     -1.8530769184     -3.1953689438     -1.4359514914
C     -1.852410863     -2.3340983361     -2.6083950781
C     -3.0582039349     -1.7105680836     -2.9854401804
C     5.0852764471     2.4092098329     0.0211696214
C     4.3024999143     2.7793620127     -1.1394991061
C     5.8360654009     1.2292818986     0.0151812866
C     4.3028921259     1.9702667858     -2.2658651276
C     3.0591522224     1.7315861952     -2.9645695693
C     -0.6203253887     3.1629027192     -1.3900118112
C     -0.6199739437     2.3286307105     -2.551522012
C     1.8530358768     2.351309228     -2.5822715505
C     1.8526448388     3.2000535016     -1.4006943746
C     3.0583970928     3.3648965237     -0.6908229435
C     0.6213290799     0.3795973205     -3.433918819
C     0.6213925866     1.7374265934     -2.9851378194
C     -3.0577736821     -0.346049356     -3.4207171628
C     -1.8515830105     0.3799814496     -3.4743595068
C     -1.8515769338     1.761254411     -3.0177211302
C     -3.0577652074     2.3120065138     -2.5416189898
C     5.0839178642     0.7278161753     2.3096808799
C     4.3008159884     1.9458384326     2.3027268958
C     5.8352591177     0.3690656165     1.1859542282
C     4.3014247858     2.7669078815     1.185024157
C     3.0577023703     3.357047207     0.7413769177
C     -0.6221978722     2.3007966268     2.5873827877
C     -0.6215328425     3.147424724     1.43486685
C     1.8513214442     3.1844498788     1.4481833621
C     1.850655716     2.3231779905     2.6206267565
C     3.0564486712     1.6996494088     2.9976728751
C     0.6206788489     3.3854275107     -0.6907973547
C     0.6200482947     3.3775007188     0.7392336557
C     -3.0580986466     3.1476220013     -1.3784043479
C     -1.852256131     3.4233240325     -0.7040048937
C     -1.8528431094     3.4154882651     0.7507672482
C     -3.0592038735     3.1324543027     1.4211424771
C     5.0839256253     -1.9682611843     1.4178528466
C     4.3000830503     -1.5854224011     2.5736853966
C     5.8352880302     -1.0101830614     0.7297088804
C     4.3001009884     -0.2687386054     3.0092411896
C     3.0560154555     0.3351290908     3.4329486449
C     -0.6231500904     -1.7483478418     2.9973696362
C     -0.6230842212     -0.3905175019     3.4461513849
C     1.8498280809     -0.3909011452     3.4865908831
C     1.8498213673     -1.7721737748     3.02995165
C     3.0560091679     -2.3229270053     2.5538513557
C     0.6187254453     1.7050105795     3.0158425255
C     0.6182915639     0.342572979     3.4504255392
C     -3.0598529975     2.2844666562     2.575347191
C     -1.854137679     1.7285832232     3.0465537905
C     -1.8546148892     0.3426141797     3.4887182899
C     -3.0607905098     -0.3826685539     3.4264269435
C     5.0851291147     -1.9531448269     -1.4219422484
C     4.3012230757     -2.9342655853     -0.7009397894
C     5.8360173127     -1.0024678167     -0.7231135819
C     4.3006863746     -2.9417303582     0.6859150284
C     3.0563410914     -3.1585433872     1.3906362639
C     -0.6218056028     -3.3884220561     -0.7270035288
C     -0.6224342171     -3.3963496829     0.7030291667
C     1.8505017223     -3.434245035     0.7162372262
C     1.8510877321     -3.4264079933     -0.7385347968
C     3.0574477613     -3.1433755945     -1.4089104932
C     0.6182182354     -2.3395499621     2.5637528141
C     0.6185677135     -3.1738230488     1.4022444935
C     -3.060910092     -1.7425057807     2.9767998259
C     -1.8547906741     -2.3622294693     2.5945025322
C     -1.8544000382     -3.2109751485     1.4129270709
C     -3.060152447     -3.3758154056     0.7030544922
C     -5.0878305514     -0.7633261033     2.2974651185
C     -4.3046484563     -1.9811866396     2.2780958876
C     -4.3042573049     -2.7902832755     1.1517303736
C     -5.8382158581     -0.3925723242     1.1769671554
C     -5.0868868585     1.942225188     1.4341735854
C     -4.3040275131     1.5470098432     2.5864794434
C     -4.3045082688     0.22576298     3.0080951993
C     -5.8377737683     0.9915471615     0.7353452096
C     -5.0856833715     1.9573408473     -1.4056223005
C     -4.3024424326     2.9308099544     -0.6736829185
C     -4.3029790022     2.9233448155     0.7131717137
C     -5.8370447376     0.9992632599     -0.7174768417
C     -5.0856755095     -0.7387378488     -2.2974494072
C     -4.3018579099     0.2578189486     -2.9970103278
C     -4.3018403392     1.5745030059     -2.5614545242
C     -5.8370159645     -0.379985352     -1.1737226113
C     -5.0870344555     -2.4201309835     -0.0089369276
C     -4.3031808927     -2.7778277485     -1.1727928806
C     -4.302572357     -1.9567582376     -2.2904957843
C     -5.8378218613     -1.2402020179     -0.0029503612


