100

 C     1.8066951201     -3.1296846997     2.7679244967
C     2.0360108021     -3.8401530322     1.5580537475
C     3.2433537788     -3.5417245095     0.8708147069
C     3.2874384586     -3.5901866708     -0.5591956296
C     2.21367464     -4.0795384399     -1.2622398005
C     0.476155263     -2.8278497734     3.1880334738
C     -0.6627794463     -3.2911587826     2.520812999
C     -0.4938549455     -4.0868680592     1.3088142236
C     0.8655033603     -4.3270366401     0.8164571975
C     1.0284740251     -4.5399307966     -0.568860302
C     -2.8685763736     -3.6631429827     0.8164183626
C     -1.6138251462     -4.2001834253     0.4083600392
C     -2.9753302833     -0.4418029109     3.386942482
C     -1.8745398915     -1.2942011088     3.5128137624
C     -1.8995857539     -2.5911764019     2.817965146
C     -3.0085563179     -2.9017982278     2.0213225676
C     3.567303149     -1.7380307203     -2.1868722553
C     2.3872470031     -2.2372796511     -2.9035494919
C     4.0101169022     -2.4518413148     -1.0543395323
C     1.8065309544     -3.4415486262     -2.4709152749
C     0.3972151502     -3.6896595029     -2.6337964515
C     -1.8372567855     -2.9433867498     -3.0348784481
C     -0.4565642961     -2.8040515295     -3.3180944749
C     0.0813620444     -1.5312810682     -3.7678667608
C     1.5125820044     -1.3119221098     -3.6227049328
C     1.9830195     -0.0082082984     -3.7711843482
C     -1.3887296973     -4.3170697969     -1.0273478
C     -0.0655576488     -4.4185723628     -1.4798595574
C     -2.3061253082     -3.7291257658     -1.9395547639
C     3.2161500834     0.4613246771     -3.1721343658
C     3.9503251884     -0.3330156326     -2.2720516346
C     4.6409819919     0.3295820681     -1.1591798536
C     3.0775816035     1.873594934     -3.0042315324
C     3.7276879472     2.4998483464     -1.9649091018
C     4.5348054468     1.741349478     -1.0634403152
C     0.9647322144     4.5432549493     -0.6002605243
C     3.040295401     3.5649341258     -1.2539440937
C     1.7277426181     3.9647844255     -1.6249090833
C     -2.7379372726     -1.8451321741     -3.2146469676
C     -2.240465052     -0.5915806247     -3.624669078
C     -0.8240815937     -0.4076841763     -3.904777668
C     -0.3025692844     0.9413485389     -3.8657828803
C     1.0883397632     1.0999971309     -3.8958659369
C     1.7296556113     2.2623511911     -3.3750262721
C     -1.0783354791     2.0672730522     -3.3589172542
C     -0.4376589939     3.1876544348     -2.6911006606
C     1.0125231709     3.2677450994     -2.6930880668
C     4.8734603589     -0.4066127939     0.0772373246
C     4.5857208109     -1.7855701198     0.0937291666
C     4.3937359216     2.3974171955     0.2197454121
C     4.4491533636     1.6844724539     1.3813473099
C     4.7766508248     0.281683995     1.335786259
C     3.4251556303     3.4721902853     0.1092529716
C     2.4967170909     3.728654998     1.1621806393
C     1.3340947763     4.4009512512     0.7745619508
C     4.1572162724     -0.3206773769     2.4563911419
C     3.789260597     -1.6862912916     2.4397761322
C     4.0855964652     -2.4405202243     1.2701333632
C     2.6457153659     -2.0574763229     3.1827100628
C     2.4307150683     2.8471565865     2.3235873729
C     3.4886193034     1.9149975668     2.4537016353
C     3.3107694551     0.6856677402     3.1076031577
C     1.1498593014     2.5558550964     2.951012141
C     2.0584934934     0.3410042177     3.675816672
C     1.8103097525     -1.0491269024     3.818938445
C     0.1311709115     4.3243380192     1.5573777761
C     -0.0141763738     3.3600713032     2.5823988763
C     0.9470260803     1.2720456634     3.5938893281
C     -1.3618077212     2.9014250509     2.8922560051
C     -1.545915647     1.5982146492     3.505366654
C     -0.4069200987     0.7572414977     3.7857656834
C     -0.6160043358     -0.676867548     3.8615974208
C     0.4980917466     -1.5361953678     3.8495585937
C     -2.8208446386     0.9781750938     3.4014312879
C     -4.0229926894     2.8377903304     0.5155478299
C     -3.652269976     2.7057419295     1.9081339408
C     -3.8505636014     1.5133758664     2.543675821
C     -4.1645769435     1.6707865188     -1.573649329
C     -4.530082698     1.7230860748     -0.2076102273
C     -2.4531088234     3.4583580063     2.164712216
C     -0.9541579761     4.6459647657     0.6791705502
C     -3.1902019123     2.5589667455     -2.126313185
C     -2.5795532848     3.5806699779     -1.3745987881
C     -3.1022017288     3.7741733287     -0.0672839689
C     -2.2244681372     4.2228555507     0.9814224334
C     -3.0198061497     0.5297632409     -3.2474447684
C     -2.4451204903     1.8282321716     -3.1086825162
C     -1.1952591604     3.9388769042     -1.6868749685
C     -0.4678761711     4.600451131     -0.6748051437
C     -3.8117207257     -3.1288321654     -0.129527766
C     -3.5244632652     -3.124270499     -1.4813837353
C     -4.4057790871     -0.8036883902     -1.6781404302
C     -3.809156215     -1.9595499719     -2.2621103841
C     -4.084809726     0.4208022494     -2.2890932078
C     -4.5368537496     0.4244358677     1.8753866926
C     -4.0834631191     -0.7692835513     2.5147248994
C     -4.0892551179     -1.9592750888     1.8347426638
C     -4.8087915146     0.4591568272     0.4874033883
C     -4.7722548192     -0.8082444769     -0.2531295697
C     -4.5058303193     -1.9970839455     0.4664266779


