100

 C     4.0963884852     -1.8316737611     -1.6850715074
C     3.3940891598     -2.9617590031     -1.2647404187
C     3.5768997189     -3.3301069403     0.0990384438
C     2.5932511131     -4.1236048651     0.7771407808
C     1.5377947288     -4.6301271666     0.073330894
C     3.6016813267     -1.0064914309     -2.7610980911
C     2.2845690548     -1.1616863009     -3.2478296155
C     1.5359707604     -2.3608409284     -2.8713587925
C     2.1566605777     -3.3047709937     -1.9547005828
C     1.3343564929     -4.2585744258     -1.3263795738
C     -0.5704175582     -1.2195879286     -3.6170244364
C     0.1161804361     -2.4110833038     -3.1062191185
C     -0.6907803853     -3.455482236     -2.4829503205
C     -0.0460189081     -4.3484377955     -1.6020235762
C     -1.9675708735     -1.1866802974     -3.594851649
C     1.5762964242     0.041342892     -3.6723899585
C     2.2374539371     1.2866094952     -3.5775532237
C     0.1380770007     0.0558607411     -3.7531799118
C     -2.0047967268     -4.4621538049     -0.1344398411
C     0.2414026135     -4.7865999152     0.6888334505
C     -0.7050097666     -4.7984645847     -0.3797000465
C     -2.7791712125     -3.811580887     -1.1547696957
C     -2.7588856664     -2.1995027402     -2.9340467023
C     -2.1357647667     -3.3015214989     -2.3209394171
C     -2.3836171926     -3.9348656226     1.1469691089
C     -1.4223141311     -3.6586070243     2.135180737
C     -0.0607157544     -4.1711596747     1.9307056873
C     1.060474621     -3.5677562243     2.6492823906
C     2.3751025556     -3.5908801711     2.0994161793
C     0.7873842355     -2.4993601282     3.5161786916
C     -3.5167083697     -3.0833066126     0.921935932
C     -4.5700526129     -0.9370344398     1.1234533726
C     -3.747377414     -1.9382163589     1.7092601345
C     -2.7691090736     -1.5746558692     2.7330508599
C     -1.6576924479     -2.4796874627     2.9713429762
C     -0.5483182103     -1.9777807305     3.6771119222
C     -3.9199819264     -1.5769293255     -2.3984432654
C     -4.4158873722     -1.9569106138     -1.1180625149
C     -3.8142523697     -3.0775914364     -0.5004350107
C     -4.9121057758     -0.9365430753     -0.2643525024
C     1.7125334927     -1.418963993     3.6965428504
C     2.9332854199     -1.3334181335     2.9801790767
C     3.2823492175     -2.4953763082     2.2469912476
C     3.440120279     -0.0291442498     2.5893603156
C     4.3872974666     0.0415983356     1.4634086373
C     4.6332342357     1.2855887629     0.8566362013
C     0.9675712592     -0.2516059459     4.0110923842
C     1.4154079363     1.0198714124     3.6749189896
C     2.7075538004     1.146780988     2.9861624543
C     1.9974194106     3.4165649164     2.316055092
C     2.9768763095     2.4009657252     2.3157761196
C     3.9067311255     2.4526424973     1.2542567001
C     -1.9703412369     2.6222846979     3.1783249992
C     -1.0405973102     1.7116706057     3.6754839761
C     0.3929307475     2.0638184966     3.6207855316
C     0.7455516833     3.2845192058     3.0351131309
C     -4.5113282958     0.4195430033     1.5734181914
C     -3.5867530613     0.7996078463     2.5654409981
C     -2.6789639951     -0.1856578367     3.1463161585
C     -1.4554185795     0.3058780413     3.7464048801
C     -0.4440764789     -0.608837309     4.0255582853
C     -3.2157679589     2.1752958398     2.5868567997
C     4.6171281785     -1.1463486414     0.6385506317
C     4.0671560081     -2.3791039939     1.0394125105
C     4.9261132791     1.4187966081     -0.5606827096
C     4.9513918091     0.2935545788     -1.3641686719
C     4.8204016172     -0.998262596     -0.7641983887
C     4.2831483155     2.6271490546     -1.0282150242
C     4.2270740156     0.2845349472     -2.6200027525
C     3.5583687775     1.4194444986     -3.0300473189
C     3.6070314633     2.6328941662     -2.2429288149
C     1.7454250032     4.1981024383     1.1573435518
C     2.4717100596     4.0105213911     -0.0328861175
C     3.6772739512     3.2789918203     0.0969022972
C     0.3428161305     4.5435698971     1.1395186055
C     -0.4208262123     4.5074690694     -0.0495228923
C     0.2699610822     4.1242937328     -1.2832788902
C     1.7241067694     3.9765485722     -1.2874918919
C     2.3194640918     3.2805439559     -2.3546449538
C     -1.9007768474     3.3983363823     -2.1815031116
C     -0.4928845585     3.4712997738     -2.3113799129
C     -2.41692808     4.0031525488     1.3674363566
C     -1.5608549204     3.8084375097     2.4784040711
C     -0.2159297178     4.1186751706     2.38824361
C     -2.5891339663     3.8225658931     -1.0313291359
C     -1.8645549191     4.3004600137     0.0945536653
C     -4.8156684001     1.2741320968     0.4599153523
C     -3.7877811371     3.0118232032     -0.9138632048
C     -4.2234299003     2.5604050472     0.355926081
C     -3.5000544984     3.0300931081     1.4923960535
C     -3.8902915147     -0.1822012384     -2.7791394336
C     -3.8546162364     2.137578825     -2.0471252528
C     -4.4423393743     0.8376998078     -1.9488408378
C     -4.9860932043     0.4366638108     -0.692454876
C     1.5125850346     2.4730242066     -3.238300587
C     0.1279528968     2.4930850947     -3.1894419165
C     -0.5791265407     1.2950815322     -3.6153382313
C     -2.6646705136     2.3480042092     -2.816157906
C     -2.0197487454     1.2824399318     -3.4750718334
C     -2.6983493908     0.044629425     -3.5296329291


