100

 C     -2.6850288483     -1.423791618     3.4142506938
C     -3.4928694333     -0.3115517255     3.0852111106
C     -4.5486803206     -0.5451832149     2.1544790279
C     -5.0641057623     0.5072953755     1.3598882055
C     -4.5431036669     1.800664303     1.5030405531
C     -1.3533767425     -1.2568243517     3.8600750929
C     -0.7365108907     0.0128733099     3.9459739289
C     -1.5065555858     1.174011197     3.5808745225
C     -2.8905258519     1.0176095182     3.1784398268
C     -3.4763566432     2.0544431036     2.4123765356
C     0.5817934063     2.4338304178     3.4269465352
C     -0.7809981105     2.3763708457     3.180097766
C     0.7633545618     -2.344809692     3.2014773167
C     -0.6002090552     -2.4002993393     3.4444772003
C     3.4611234139     -2.0290244147     2.4397050472
C     2.8728954873     -0.9860798422     3.195567421
C     1.4876617893     -1.1392615028     3.5948822336
C     0.716483565     0.0247614824     3.9482184817
C     1.3336339601     1.2937370622     3.8540893005
C     -5.0381018375     0.7441328383     -1.0770386554
C     -4.6031322808     2.1222008638     -0.9245116478
C     -5.306989125     -0.0263656009     0.0291811358
C     -4.3516853675     2.6393691924     0.3343610843
C     -1.5743293932     3.1790138692     -2.7644300848
C     -3.7076720189     2.429611561     -2.0022682745
C     -2.6215711462     3.3190725523     -1.8288883796
C     -3.1740134517     3.452663206     0.5502886673
C     -0.9235072568     4.1444728696     -0.1412432692
C     -2.295775087     3.8156507745     -0.4873559376
C     1.4432988822     4.2090748782     -0.9040370449
C     0.0669734669     4.2022156709     -1.2156140539
C     -0.2573928083     3.6820708551     -2.4869889697
C     -1.3220089519     3.2782209421     2.1618644785
C     -2.6638804112     3.1171674     1.8418865812
C     1.4608003087     3.2808240176     2.6472742488
C     0.9780453632     3.974429633     1.497239225
C     -0.4536715982     3.9396359406     1.2045462025
C     1.9027239011     4.1834653488     0.4560264918
C     -0.6791273649     -2.9069820023     -3.1925589188
C     -2.0068825531     -2.7155340896     -2.7643408216
C     -4.9425437355     -1.4202702084     0.0209088273
C     -4.3289865094     0.183813597     -2.2147340004
C     -3.8722786242     -1.1445459414     -2.2363727722
C     -4.2723789425     -2.0036122296     -1.1056650742
C     -2.663331487     -1.4504023317     -3.0116364166
C     -3.5663040972     1.2397601727     -2.8073985873
C     -1.4561680055     2.0395799207     -3.6018415827
C     -2.3752356824     0.9672456703     -3.5115079983
C     -1.8993975985     -0.3872973792     -3.6294661234
C     -0.4765652791     -0.5762309668     -3.9601167251
C     0.0575472512     -1.8500421277     -3.8222095688
C     -3.5171682721     -3.1596997365     -0.8361347255
C     -2.4110961324     -3.5294350479     -1.6762694109
C     0.2575938624     -3.6959607188     -2.4565568027
C     -0.0707848524     -4.2058963454     -1.18207965
C     -1.4480822022     -4.2102710007     -0.8747941613
C     2.289664634     -3.8134638441     -0.449507045
C     0.9163064612     -4.1395121684     -0.1050871838
C     3.1646332914     -3.4421468801     0.5879524017
C     1.5754064232     -3.1951424676     -2.7338859577
C     3.7063435537     -2.4396137576     -1.9710359721
C     2.6196895     -3.327665356     -1.7939464775
C     -0.0530631059     1.8252436526     -3.8371347156
C     0.4814644424     0.5503743669     -3.9631322428
C     1.9032450976     0.3641162402     -3.6264942724
C     2.3786907222     -0.989429064     -3.4961649776
C     1.4599027156     -2.0624724268     -3.5807935746
C     3.5675270886     -1.2562618491     -2.7861370614
C     -3.2265087177     -3.5914509359     0.4985731885
C     -3.6697040115     -2.8296533413     1.6076493741
C     -4.5732221022     -1.7722803262     1.3537802154
C     -2.7751417266     -2.6897373095     2.7031233072
C     -1.9117952787     -4.1737536031     0.4835617696
C     0.442232263     -3.9238902847     1.237521432
C     -0.9903967155     -3.956349015     1.525970808
C     -1.4767677542     -3.2535468807     2.668876042
C     2.6504370998     -3.096304058     1.8752032829
C     1.3075623048     -3.2547965267     2.1922353125
C     5.0338736013     -0.7467449826     -1.0551823568
C     4.5984049832     -2.1235476792     -0.8929694622
C     4.3429911622     -2.630599098     0.3692185686
C     5.2992871798     0.0326111422     0.0456594376
C     0.6816352387     2.8872212017     -3.2136809866
C     2.0080297433     2.6992258398     -2.7797536751
C     2.6652397502     1.4321569073     -3.0148109216
C     4.2682827764     2.0006732275     -1.1082766589
C     3.8717320551     1.1325520758     -2.2333083313
C     4.3283530794     -0.1955847614     -2.1995691148
C     4.9348872016     1.4264023838     0.0250459024
C     3.5122382803     3.1588761359     -0.850419864
C     2.4088220806     3.5218386165     -1.6969781316
C     2.759052554     2.7173244673     2.6901368002
C     4.5613680619     1.7890943523     1.3538798079
C     3.6570649714     2.8484575718     1.5964009377
C     3.2173764435     3.6013236506     0.4798557081
C     4.5307348385     -1.7825390245     1.531724452
C     5.0522001302     -0.4903538234     1.3798319607
C     4.5342812391     0.5684644479     2.1643182333
C     3.4755464392     0.3423020581     3.0935690244
C     2.6666857687     1.4571341645     3.4111229317


