100

 C     -4.279188356     -0.6838989226     1.676686019
C     -4.5317673464     0.0028193824     0.4693530569
C     -4.6357810328     -0.821811749     -0.6813548684
C     -4.1530046853     1.4075268988     0.3501586914
C     -3.9817469635     1.9513033199     -0.9957687927
C     -3.3076281908     3.1745469605     -1.1386370236
C     -3.6732790213     -0.0145424051     2.7926245175
C     -3.2554447249     1.3185870946     2.7105549809
C     -3.5423420636     2.0755541693     1.4805719282
C     -1.7810991999     3.7106482508     2.181909514
C     -2.8257459917     3.3239964447     1.2716455525
C     -2.7423516681     3.8613705745     -0.0286167905
C     -1.4128957352     2.8814382608     3.2690729133
C     -2.1301415479     1.7089610427     3.57597349
C     -1.4082096566     0.7242223185     4.2934976064
C     -3.9660781648     1.0557693993     -2.1577748026
C     -4.2995141429     -0.298215989     -1.9912369883
C     -2.4551736553     3.4511950269     -2.2836880047
C     -2.2864108374     2.5115581286     -3.2668370815
C     -3.0855022611     1.3268318532     -3.2456389721
C     -1.3342888532     4.2325045841     -1.8535514568
C     -0.0172651473     3.9744557991     -2.3629576573
C     1.0458020548     4.3691397835     -1.5322472979
C     -0.6060804016     4.4011167865     1.7367235226
C     -0.4573945383     4.7899909423     0.3858649669
C     -1.5499763528     4.5643545703     -0.4859910664
C     0.8452958381     4.7625400476     -0.1704095
C     -2.3032262347     0.2855802644     -3.8324206861
C     -2.5254434223     -1.0597794054     -3.5448158676
C     -3.6751834041     -1.3314194569     -2.7426509332
C     -3.7360377929     -2.5187146486     -1.9372287691
C     -2.7402621572     -3.4472912465     -2.037488421
C     -0.9653771839     0.7931383974     -4.0581823874
C     0.1764089311     -0.0146923677     -3.8951930387
C     -0.0191994497     -1.450768549     -3.6483137189
C     -1.3793699911     -1.9625818358     -3.5262088518
C     -1.5773489949     -3.2041243719     -2.8859402319
C     2.3946085247     -1.60161424     -3.0108499743
C     1.0838099286     -2.2306785572     -3.155452689
C     0.8294237851     -3.4889145492     -2.4653038667
C     -0.4963735716     -3.9369251026     -2.3469957138
C     3.3801643049     -2.2755322999     -2.2368985035
C     2.5614406955     -0.1695704714     -3.2317536768
C     1.4170225109     0.6553136064     -3.5788004573
C     3.7024598321     0.4636946606     -2.6760438771
C     0.1840245726     2.8362674807     -3.2734646154
C     -0.9616774702     2.1843249499     -3.7547144021
C     2.3162066721     3.7148625112     -1.6266675443
C     2.5254829051     2.6293121551     -2.5118690765
C     1.4180184981     2.0786800767     -3.2685353279
C     3.6355577877     1.8196105067     -2.2211896995
C     -0.1095823488     -4.8400733511     -0.0941811762
C     -2.3057930116     -4.1858635229     -0.8713377351
C     -0.9704837455     -4.6080165099     -1.1390781329
C     1.2892782386     -4.5867571156     -0.2735643845
C     3.0190395675     -3.3608669717     -1.3680441271
C     1.7682352581     -3.9805251503     -1.4631831877
C     -0.4889177814     -4.4914712177     1.2411488335
C     -1.7452462018     -3.9307843199     1.5229522878
C     -2.7232714139     -3.8180922053     0.4338706812
C     -3.7867376915     -2.8229679815     0.5281798888
C     -4.3054001853     -2.2070743921     -0.6491852116
C     -3.8831534631     -2.0625375517     1.7015736719
C     -0.5879659868     -2.6393967652     3.3716272486
C     -1.8179910934     -3.0614743862     2.6890229392
C     -2.9528535221     -2.2326874184     2.8011137149
C     -0.628082124     -1.4730433079     4.1526762596
C     -1.7949313784     -0.6499598037     4.2278827693
C     -2.9309996885     -1.0074687296     3.5343602286
C     3.6991616737     -3.1989669549     -0.1089495153
C     2.9863783236     -3.4142263253     1.1011845657
C     1.8238882332     -4.2032902005     0.9957394838
C     0.7290643051     -4.052227675     1.9046737677
C     1.8939499346     -2.1840578938     3.0129163675
C     0.7195688961     -3.0489612402     2.8887039736
C     4.6082624807     -2.107569106     -0.2510238178
C     4.7970605842     -1.2374481363     0.8172404144
C     3.9854021628     -1.3753111493     2.0047279345
C     3.0491920479     -2.4197478222     2.160951071
C     1.74061877     -0.8870975731     3.6277222485
C     0.5037560406     -0.5894184379     4.2280572382
C     4.962253779     0.6613132867     -0.7201749451
C     4.6188294702     -0.2281830917     -1.8168417957
C     4.4577331719     -1.5754768131     -1.5927960496
C     4.9964611684     0.173177306     0.575906115
C     2.9110765833     3.7140619668     -0.3264425282
C     3.8327819286     2.7251333258     0.0679391607
C     4.3614681684     1.9335076972     -0.9776038518
C     0.5174188168     3.8915002308     2.4802056426
C     2.6126870963     2.5526433341     2.2817715853
C     1.7891642528     3.7030592115     1.8874158943
C     1.9640346744     4.2615424168     0.5881881618
C     4.3196491888     0.9092895097     1.6282890046
C     3.7181896858     2.1608092875     1.4151165646
C     0.0344359428     0.7538719901     4.3437194866
C     3.7292976188     -0.051261857     2.5104272812
C     2.5880838187     0.2404964309     3.2565686648
C     2.080841581     1.6039964203     3.2295478626
C     0.7725426281     1.8419188135     3.8201189079
C     0.0178169148     2.9659636689     3.4361524114


