100

 C     -1.5510014346     2.8999305491     -3.0912471178
C     -0.3550529562     2.240653959     -3.4727775868
C     0.9200283973     2.8369708352     -3.0955855745
C     2.1259306336     2.0267428517     -3.0910124247
C     3.221930506     2.4758895754     -2.3127322054
C     0.7874116107     0.041914876     -3.8356300961
C     2.0660094974     0.6164122707     -3.4493683826
C     3.1636854882     -0.2550280372     -3.0369856466
C     2.9529135923     -1.6583080701     -3.0595325864
C     -1.7338823055     0.1754593874     -3.6855187601
C     -0.437954485     0.8374102527     -3.7954521744
C     -1.7903605944     -1.2326766244     -3.7218192372
C     -0.6197151134     -2.006941647     -3.8134811335
C     0.6562414948     -1.3979957496     -3.8708258989
C     1.7248388227     -2.2112840427     -3.4391813913
C     -2.8905907932     0.826715931     -3.1050946556
C     -3.861798377     0.0676379924     -2.3031794998
C     -2.7830040695     2.210224538     -2.8880262718
C     -4.5777707473     0.7443454366     -1.2950001552
C     4.2011870315     0.2201987771     -2.1263776157
C     4.1952457962     1.5709586563     -1.764508556
C     3.5085906853     -2.5357020164     -2.041616752
C     4.3693464578     -2.0596662782     -1.1078720867
C     4.7842486775     -0.6773565758     -1.1633690941
C     2.719997914     -3.1891129186     1.9857209384
C     4.264678325     -2.4991291924     0.2683753378
C     3.1910744211     -3.3652137464     0.6692179723
C     2.5124029672     -3.5372298622     -1.6900737413
C     -1.4644205738     -4.398537605     -0.6176592504
C     -0.1069603883     -4.3463648411     -0.9996856848
C     0.9050951573     -4.2496013472     0.0381980884
C     2.2617759981     -3.8915261273     -0.325426124
C     0.4569672209     -4.0296054308     1.4116174612
C     1.3665542218     -3.497659641     2.3314611877
C     1.4778678827     -3.4088135673     -2.6255097327
C     -0.8486749533     -3.2622262697     -3.117319881
C     0.1743698244     -3.8542243518     -2.3442882039
C     5.0415957555     -0.2827046105     0.1671970315
C     4.8519208058     1.0615254576     0.581972395
C     4.5344265431     2.0052443332     -0.431406378
C     4.3382580157     1.3097927366     1.8871269896
C     4.6825779297     -1.4047231548     1.0573025686
C     3.1476205544     -2.0840033117     2.7976788402
C     4.0974658496     -1.1471686812     2.3314048217
C     3.9307983654     0.2109299574     2.7408760683
C     3.4414145067     2.3877028349     2.1166614568
C     3.083542464     3.3129056569     1.1090377029
C     3.7458279497     3.1655991196     -0.1416125549
C     3.0689206342     3.529799027     -1.3530891882
C     1.8958017322     4.2300712514     -1.2898319758
C     2.4707598826     1.9616318474     3.0944087146
C     1.154306794     2.4265801759     3.0914152026
C     0.7725919757     3.4861282574     2.1531152854
C     1.7477408515     3.9182929975     1.1660660133
C     1.2605078351     4.5231966024     -0.0111245435
C     -1.5727421893     3.0489820206     2.7288064113
C     -0.6308314967     3.739702047     1.9232030822
C     2.0256315028     -1.6673164878     3.6007898682
C     1.7741237485     -0.3044403938     3.8669839379
C     2.7936526605     0.6203367648     3.4887872756
C     0.4160244908     0.1551382202     3.9914396541
C     0.1431598063     1.555824628     3.7009865945
C     -1.1808188987     1.974421664     3.5853696137
C     -1.5295591405     3.9925918649     -2.1378519608
C     0.8885105693     3.9955534919     -2.2690405756
C     -0.3369687813     4.4601722432     -1.6861650915
C     -1.1164666391     4.2927382792     0.6690062724
C     -0.1332083111     4.6705805609     -0.2644004564
C     -2.6381020781     3.8630919322     -1.2357459936
C     -2.4538992519     3.9444299169     0.1676614806
C     -2.904508097     2.7839205898     2.2977057148
C     -3.3636935764     3.1668323039     1.0041372026
C     -4.34311262     2.3322219749     0.4022634544
C     -4.3453190405     2.1333326114     -1.0144605891
C     -3.4871635645     2.8590419157     -1.8061955727
C     -3.3631280231     1.571130834     2.933813338
C     -4.1215096772     -0.6990151065     2.5259108069
C     -4.2597132151     0.6891761905     2.2754552015
C     -4.7506544945     1.0760390926     0.9984804826
C     0.9464362154     -2.5557497339     3.3457827048
C     -0.3872788436     -2.1710957258     3.5206765719
C     -0.6693993773     -0.8080814026     3.9339026867
C     -3.027483875     -1.2040452019     3.308414026
C     -2.0300375415     -0.3334838171     3.8238545466
C     -2.2765165919     1.0539454665     3.6967201939
C     -3.2060029148     -3.6353079154     0.733681994
C     -1.8824101941     -4.204772765     0.7489407643
C     -0.9525288325     -3.8870416274     1.7495018974
C     -3.6086522937     -2.8273247439     1.7691539594
C     -2.7015251099     -2.5237720282     2.8385222692
C     -1.3761984759     -2.9805315888     2.8277528143
C     -2.192483431     -3.2542865401     -2.6612412578
C     -3.540369181     -3.294871022     -0.6276412801
C     -2.5033800394     -3.858593696     -1.4549539464
C     -4.9126609061     0.1109529609     -0.0423491779
C     -4.4204827702     -1.6725618027     1.5050394568
C     -4.6873202952     -1.276240588     0.1710447772
C     -4.1612772715     -2.0664721082     -0.9396053331
C     -3.7378366215     -1.3754864917     -2.1737136242
C     -2.79671961     -1.9932192309     -3.0010561094


