100

 C     2.0915549358     3.3401029679     -2.3895604061
C     3.1468235468     2.4132167154     -2.396810119
C     4.0373336426     2.4948978517     -1.2882488711
C     4.864112659     1.3858443116     -0.918679669
C     4.7871237835     0.210577874     -1.6432520855
C     0.8405968098     3.0619685821     -3.0514287798
C     0.575233011     1.8068893048     -3.6075145455
C     1.6509854736     0.8118211344     -3.6233618913
C     2.9422509141     1.1402812638     -3.0693734026
C     3.8045252121     0.0702530564     -2.7038049974
C     -0.0374122082     -0.8900794699     -4.0740571673
C     1.2958346893     -0.5785351834     -3.7608714661
C     -1.5214404854     3.3955894321     -2.3234593969
C     -0.1923660111     3.8255009251     -2.4180938184
C     -3.8860873348     2.0079881686     -1.5892968731
C     -3.1032415839     1.4671330704     -2.6480229767
C     -1.879536163     2.1585735143     -3.0123798946
C     -0.8260149069     1.42361946     -3.685274655
C     -1.0893136689     0.0970660821     -4.0539311078
C     5.0195146996     0.1314052714     1.1800822186
C     5.0623348543     -1.1094267514     0.4144968984
C     4.9262365623     1.3409323367     0.5335379998
C     4.9036390194     -1.0644078198     -0.9667240266
C     4.0021506262     -1.9811601116     -1.5970995459
C     4.3925590713     -2.1184735687     1.1678107492
C     3.5400303563     -3.0706480841     0.5600582936
C     3.3125189054     -2.9734707056     -0.8852612672
C     1.4753252249     -2.8471655493     -2.6515807529
C     2.0816959259     -3.4910860998     -1.4865728148
C     -2.1287717859     -3.7825424369     -2.0594564877
C     -0.7225666897     -3.9635782865     -2.1234035623
C     -0.1226129738     -4.4971214503     -0.9649534716
C     1.2650543926     -4.295864004     -0.6759885502
C     2.0881674715     -1.6374714109     -3.1635816092
C     3.3598187667     -1.2790915066     -2.6930009109
C     0.0929534522     -3.1092127884     -2.9796327487
C     -0.5954336148     -2.1590657586     -3.7788516444
C     2.9490307499     -1.9884960512     3.1465969755
C     4.2505476462     -0.0959285718     2.3724041689
C     4.0212359961     -1.5113863639     2.4440200799
C     2.2383060696     -3.1471149844     2.6845893417
C     1.4287140607     -4.3240407728     0.7591221625
C     2.5035351128     -3.6705869673     1.394413206
C     2.0200354994     -1.0735160274     3.7499213142
C     2.1047491253     0.31938624     3.5255866014
C     3.264294451     0.8356430904     2.8140149386
C     3.1573464872     2.1117735251     2.124900755
C     4.0431815291     2.3566747128     1.04123628
C     0.8281311806     2.4225084161     3.0338712851
C     1.9308476284     2.896624652     2.2154524064
C     1.6773182812     3.9145273611     1.2031018262
C     0.3863728444     4.4824247512     1.1175506901
C     -0.3582523311     0.3795452216     3.9016780278
C     0.8806017887     1.0822831877     3.6067217715
C     -1.5732327098     1.082945662     3.811433684
C     -1.6364343871     2.4152658202     3.3679094957
C     -0.4619265896     3.0832865852     2.9360757042
C     -0.6552392618     4.1088173208     1.9799651812
C     0.1248148682     -4.3776466182     1.3367091977
C     -0.2065699402     -3.5978795416     2.4768581922
C     0.8913224277     -3.0258921182     3.1581195993
C     0.7609081479     -1.757062527     3.8079444308
C     -1.6439144889     -1.7448726948     3.3279807411
C     -0.4465731037     -1.0690814675     3.8321414971
C     2.4640706348     3.9341908618     -0.0195691754
C     3.6221788152     3.1493374607     -0.0826791475
C     -0.2237227658     4.8083718931     -0.1714912354
C     0.4544063     4.5573932074     -1.3292815085
C     1.8309127182     4.1894790375     -1.2707450037
C     -1.629217909     4.5464369742     -0.1026876249
C     -2.2990588279     3.868030445     -1.1763018556
C     -3.4682122056     3.1728985194     -0.8432382441
C     -2.926417706     2.5963690434     2.7265864975
C     -3.0526897159     3.4255669117     1.5825889929
C     -1.9202168068     4.2103661068     1.2442423284
C     -3.8957670929     3.0086872623     0.5122100627
C     -3.6485186798     1.3691442552     2.814098701
C     -4.6477815931     -0.4518095277     1.5506311406
C     -4.5012097004     0.9460755363     1.7446785436
C     -4.6143446778     1.767813489     0.5915081897
C     -2.5386745306     -3.3512222229     1.6072857713
C     -1.5137530237     -2.977488316     2.5907421208
C     -3.70582436     -2.5791004376     1.530957303
C     -3.8718377277     -1.3924825915     2.3046909077
C     -2.8482786488     -0.9538544166     3.1913764076
C     -2.8161007084     0.4213622739     3.4948936569
C     -3.9555645159     -2.949316258     -0.8843918997
C     -2.8375029674     -3.8662994408     -0.8217845021
C     -2.1542803854     -4.101422593     0.4070246499
C     -0.8260155565     -4.5465079374     0.2773051186
C     -4.4003190634     -2.3616121925     0.2747404917
C     -2.0267157374     -1.9659059324     -3.6696217043
C     -3.8720575341     -2.1836482554     -2.1000985272
C     -2.7811850034     -2.7561560656     -2.8453790821
C     -4.660714744     1.1839255342     -0.724851181
C     -4.8926639259     -1.0169671529     0.2462423653
C     -4.754218567     -0.2223682155     -0.9219575929
C     -4.1409516939     -0.7908524451     -2.1133922287
C     -3.3079677832     0.0637162823     -2.9678418304
C     -2.3169219724     -0.5569732704     -3.7583471039


