100

 C     0.9107407836     -4.5871142996     -1.2697332654
C     1.6187969741     -4.5950435888     -0.0863267179
C     2.8813352374     -3.939696838     -0.0051450077
C     3.0414703055     -3.5401340798     1.3804603127
C     3.8935168209     -2.5197854805     1.7196450891
C     -0.5110930318     -4.6373004769     -1.2505676932
C     0.9054041578     -4.4002108747     1.1507007062
C     -0.4776051268     -4.2496947625     1.1862461863
C     -1.2421766724     -4.4834032543     -0.0464326709
C     -3.1861470968     -3.4066735248     1.01064509
C     -2.6067634324     -3.9913906878     -0.145576111
C     -3.1048086458     -3.5399967092     -1.3987719935
C     3.765960057     0.7988599512     2.9004184753
C     4.2720824168     -0.3989233431     2.4811713137
C     3.540740006     -1.6105247921     2.7562922959
C     1.7839270161     -3.6776560642     2.048642981
C     -2.3708681725     -3.1056111272     2.1862574464
C     -1.0134045836     -3.3852341986     2.2428772704
C     -0.1264163167     -2.491018626     3.0284152997
C     1.3094850132     -2.6667210275     2.915766898
C     2.2196040915     -1.5953996962     3.2902122644
C     -0.6470215806     -1.2686434354     3.5621224296
C     1.6727930714     -0.3196649634     3.7025337012
C     2.4880859095     0.8405884586     3.5625440315
C     4.0593668629     2.8895149463     -0.1268702829
C     4.5213202143     1.9233307406     0.8040458191
C     3.9296769164     1.9926153476     2.0934743301
C     2.7970462463     2.8158503657     2.347416976
C     0.8261636744     3.9996319057     1.4175778266
C     2.2516685947     3.6857676583     1.3803137139
C     2.975804763     3.7666474053     0.1620196036
C     -1.2029842506     4.5753200077     0.1565047291
C     0.2052834144     4.5263685642     0.2169647024
C     0.5475124161     2.3198173552     3.2700730808
C     1.9223380946     2.1072330495     3.2595194195
C     -2.2475792359     2.5048285819     3.0112757306
C     -1.4420134133     3.4708709985     2.3286055337
C     -0.0084854786     3.3877696829     2.4340290835
C     -2.0206732051     4.0990502242     1.206275443
C     -2.9237843557     -1.9605187429     2.8270553308
C     -2.0795473572     -1.0216744074     3.4867084623
C     0.2550609721     -0.1320244185     3.8056270228
C     -2.5746839007     0.2878060066     3.5874449027
C     -1.6666217134     1.397356547     3.6532153814
C     -0.2697599581     1.2121525844     3.7272225848
C     4.9782431347     0.6151570203     0.3080536345
C     4.9101181428     -0.5060989159     1.1719610925
C     3.9496401417     2.5607818371     -1.5409895414
C     4.2583802379     1.3043015248     -1.9853110952
C     4.8330391072     0.3284407512     -1.0850356557
C     2.8164708374     3.2382284712     -2.1022270055
C     1.9661197361     2.5905023052     -3.0495604029
C     0.6712801865     3.1027251069     -3.1387873544
C     0.9176631976     4.4326357684     -1.0617000324
C     2.265459331     4.0527898498     -1.0724201939
C     0.1864629836     4.102096709     -2.2433692061
C     4.4256411049     -0.9505072206     -1.5454479612
C     4.295197686     -2.0525202242     -0.6803712701
C     4.6274635726     -1.8158764787     0.6848346487
C     2.4782196708     -2.9178483664     -2.2133839878
C     3.3450251285     -3.0996168181     -1.0395653417
C     1.3460567     -3.7198450128     -2.3389213582
C     2.1790284124     1.1904984375     -3.3873593185
C     3.388987955     0.6193547601     -2.930802998
C     3.5016880104     -0.7589081172     -2.6678236744
C     -0.4406695869     2.2683795348     -3.5496630044
C     -0.2974223913     0.8832480372     -3.7353262224
C     1.059230171     0.3119528898     -3.667930546
C     1.2121779483     -1.1059226095     -3.4853035351
C     2.4488118693     -1.6441607327     -2.9245777507
C     0.0274152528     -1.9481201771     -3.5104685472
C     0.1634212051     -3.2706918628     -3.03608241
C     -0.952270219     -3.9681839826     -2.4553369894
C     -2.2050376925     -3.4274046391     -2.5219753336
C     -1.4841891586     0.0731990994     -3.5708939441
C     -1.3135903879     -1.36478169     -3.5634967134
C     -2.4050972461     -2.1593268543     -3.1515884168
C     -1.6351869539     2.834915199     -3.0224544173
C     -2.7540690755     2.0628955362     -2.7038786058
C     -2.7191708702     0.6616001578     -3.0686381894
C     -4.5997147577     0.2903305096     -1.4672768006
C     -3.7488228996     -0.1970174041     -2.5106330593
C     -3.5759685998     -1.5848510878     -2.557764871
C     -3.149069383     3.6348487955     -0.7789739596
C     -1.9243423518     4.3149924653     -1.082442398
C     -1.2348882263     3.9862812695     -2.2171050232
C     -4.4936672443     1.6527790648     -0.9968010325
C     -3.6145873554     2.5435420458     -1.6040306648
C     -3.5458473416     2.0812495893     2.5122956688
C     -4.7442303043     1.6620057119     0.4216878135
C     -4.0195820451     2.5561444731     1.2681859493
C     -3.261897839     3.5773468192     0.6283468937
C     -4.0659877506     -1.5472980068     2.0861278151
C     -4.9807411389     0.3136358414     0.8123273514
C     -4.4635900406     -0.1823923274     2.047666213
C     -3.7577541142     0.7200758913     2.8967811857
C     -4.0289777624     -2.4522088231     -1.4849817198
C     -4.9856425666     -0.5257647765     -0.3782484067
C     -4.6140433825     -1.8989732685     -0.3251795947
C     -4.2051695406     -2.4322670382     0.9357125611


