100

 C     2.1228000692     3.9612434801     1.5453996074
C     2.4442749136     2.8641649244     2.3906050313
C     3.6019998945     2.0616831036     2.0396782449
C     3.7087768137     0.7126388757     2.5580518229
C     4.5912671849     -0.1780556428     1.8916086357
C     4.3648570959     -1.5956635901     1.8908183156
C     2.5982563491     0.1377226706     3.3312712934
C     2.5426313536     -1.2579235236     3.4685858718
C     3.4046654608     -2.1299940976     2.6990158138
C     0.7890995557     4.4580069266     1.4371023113
C     1.3595873503     2.2783284621     3.1864175898
C     1.3633654401     0.8730508186     3.5353443688
C     -0.1609357992     4.0425582422     2.3281919518
C     0.1194814004     2.9357267847     3.2076660222
C     -1.529671556     3.9882367068     1.9231421059
C     -3.1162476479     3.6493568675     0.1702046225
C     -1.8846496895     4.1782715894     0.5567383795
C     3.3969179756     -3.0437937588     -1.3377834459
C     3.6651859041     -3.1117154849     0.0476708574
C     4.5562741699     -2.1213645762     0.554423359
C     1.4271515929     -3.234107575     3.0198454385
C     2.641118963     -3.2790705212     2.2732826047
C     2.6596060467     -3.709040265     0.922028585
C     0.3077486238     -3.8564622086     2.5422573628
C     0.3215547745     -4.4154969742     1.2191915346
C     1.4087884249     -4.2233484976     0.3540139701
C     1.3035550418     -1.9480849076     3.6614930366
C     0.0679542946     -1.2762531506     3.7067733348
C     0.0984004276     0.1665433379     3.7120200255
C     5.037366054     -1.0476196918     -0.2541524204
C     3.901868813     -1.9903138081     -2.1535344461
C     4.6629658435     -0.9116220907     -1.6171280497
C     2.925892453     -1.7592682552     -3.1954327218
C     2.720803664     -0.4942906756     -3.6883952253
C     1.8012443186     -2.632603274     -2.9931946681
C     -1.9368256459     -2.4255778997     -2.8040388232
C     -2.9792595238     -2.9972567969     -2.0534633928
C     -0.5841658625     -2.9283480693     -2.6085493952
C     0.4792663456     -2.232549842     -3.2741306749
C     0.2656215307     -0.8766592193     -3.7819138726
C     1.3827354306     -0.0520057577     -3.9777639154
C     1.0952733735     -3.9880428191     -1.0625946489
C     2.1029334834     -3.4540727046     -1.8658004361
C     -1.0346960737     -4.3962840816     0.7506536015
C     -1.3443003523     -4.1804853383     -0.6106420819
C     -0.2782594926     -3.8314628887     -1.5217762968
C     -2.6629471083     -3.7773652295     -0.8872256702
C     5.1441674996     0.1266209833     0.5992103361
C     3.4916513921     0.620744224     -3.1928386152
C     4.4605061224     0.4389812543     -2.16847778
C     4.6741697551     1.5661868062     -1.3316491605
C     4.9935275966     1.3853216112     0.0785354634
C     2.6340358048     1.7619504061     -3.2279395586
C     2.7556476072     2.8231261952     -2.3166099075
C     3.8728991345     2.7405410098     -1.4320483525
C     3.7683196119     3.3041965387     -0.1051418486
C     2.6897397201     4.062723373     0.2278645026
C     1.3279513174     1.349410426     -3.6951952167
C     0.1461483765     1.9671676629     -3.275353646
C     0.2315856244     3.1373552727     -2.3937671984
C     1.5451644967     3.5502170869     -1.9250508449
C     1.6093081395     4.292504713     -0.7226438358
C     -2.2396013945     2.9578636485     -2.0398823813
C     -0.9543040659     3.5661757914     -1.7024591517
C     -0.8358599123     4.2900574905     -0.4479432692
C     0.4514570039     4.6005857399     0.0210060876
C     -3.3386279076     3.1797499308     -1.1798093056
C     -2.2944912372     1.7871371763     -2.9082592606
C     -1.0709200528     1.1938422818     -3.3839172919
C     -3.4543409776     0.985181516     -2.9198955299
C     -2.1428882497     -1.0751653057     -3.3327296662
C     -1.0049974247     -0.2316013534     -3.6168793474
C     -3.377778146     -0.440016875     -3.1280386961
C     4.3191615254     2.3855995961     0.8521538948
C     -5.1240325774     -0.0265612364     -1.6191407943
C     -4.5602324194     1.2401589798     -2.0336328173
C     -4.4650630713     2.2905863614     -1.1392824031
C     -5.4267204666     -0.2389057112     -0.2661066615
C     -4.5556645807     -2.5216624499     -0.4063186842
C     -4.2102860863     -2.2965684346     -1.7957732214
C     -4.4356933609     -1.056825965     -2.3630471008
C     -5.0626085529     -1.486667408     0.3596649063
C     -1.8529935252     -3.8018225371     1.7614092455
C     -3.0676610797     -3.1755470499     1.4660454943
C     -3.5711814505     -3.3947381671     0.1569801745
C     -1.1221790915     2.2398966308     3.3911776341
C     -1.1719523418     0.850335699     3.5478279947
C     -3.4992550146     0.9079615952     2.5618558042
C     -2.4043792395     0.1447714812     3.1506752182
C     -2.3748187968     -1.2803673221     2.9857665525
C     -1.145304606     -1.9971515709     3.306145954
C     -0.9900940413     -3.3044556799     2.7957911521
C     -4.512171631     0.2234358523     1.8512647582
C     -4.4546236723     -1.1810708179     1.6526853603
C     -3.3939985077     -1.945080963     2.1778794915
C     -4.8012054488     2.0693470807     0.2561027298
C     -3.9115683956     2.8551835043     1.0566027625
C     -3.3183155164     2.315868713     2.2347327033
C     -2.1541648033     2.9554709061     2.6777047712
C     -5.1751947617     0.8146017345     0.6916130417


