100

 C     3.5145334693     1.6137420926     2.3503646724
C     2.3152862921     2.3051622851     2.8358163369
C     4.1872525854     2.1485372902     1.2251319148
C     1.9481969011     3.5221290567     2.2340157778
C     0.5798540827     3.9463317501     2.1761698074
C     -0.4934184182     3.1887145824     2.699682658
C     -0.1615466795     1.9437407238     3.3675893977
C     1.2442027698     1.5693947521     3.4874387629
C     1.550021362     0.2543028915     3.861004748
C     -2.5584326718     1.2166800982     3.1089664936
C     -1.1989607184     0.9426248459     3.535258506
C     -0.8184666736     -0.4377851701     3.7565708021
C     0.5297290302     -0.7327803703     3.9818176064
C     -3.4425569594     0.10810816     2.9718121748
C     -2.8806513161     2.4392004791     2.397805874
C     -1.8278996359     3.4057747669     2.146836974
C     -4.0108011189     2.4321261666     1.5261133813
C     -1.9463443396     4.232902774     0.9985216854
C     2.7786191283     -0.4024970167     3.4935403026
C     3.7122322151     0.2007736355     2.62549845
C     4.4466921969     -0.6541363024     1.6871944042
C     2.4993820702     -1.8085042603     3.453509029
C     3.1861985641     -2.6100611123     2.5730145951
C     4.1875442064     -2.0498064583     1.7173406889
C     0.3768082374     -4.4690699218     1.0432699595
C     2.4699025437     -3.6712917227     1.8821917255
C     1.0817530676     -3.8820833956     2.1059803638
C     1.0834728684     -2.01445602     3.6841288271
C     -2.9667323994     -1.2390847425     2.9859887961
C     -1.6452436204     -1.546447835     3.3212441949
C     -1.0745366346     -2.7787358132     2.8209887791
C     0.3425789614     -3.0068124414     3.0104697312
C     -1.7945183283     -3.4983180678     1.7750653301
C     -1.0486060887     -4.3140714903     0.9042597016
C     4.9128460984     -0.0895393629     0.4257774207
C     4.7927147363     1.304368048     0.2360843231
C     4.1314514063     -2.8241055458     0.5018332317
C     4.4225677206     -2.2562129068     -0.7077568976
C     4.8875852591     -0.894356588     -0.7566709983
C     3.0328136671     -3.7761957085     0.582579978
C     2.2279416158     -4.0690244334     -0.5566329493
C     0.9377756428     -4.5512186386     -0.2649644646
C     4.4773333004     -0.3581942794     -2.0118374272
C     4.2487627418     1.0278896298     -2.1757038122
C     4.5103024043     1.8734170689     -1.0642172708
C     3.2186256403     1.4257905946     -3.0758030789
C     3.6247851996     -1.3403313915     -2.6599748683
C     1.308937866     -1.7834318648     -3.4162454159
C     2.4865044552     -0.9440644585     -3.4135810685
C     2.3484096704     0.4357937153     -3.6821663013
C     -1.1334399085     -1.9056935145     -3.6415308347
C     0.0407970456     -1.1670642651     -3.7913611472
C     2.4453161894     -3.334553537     -1.8054683233
C     3.5932339778     -2.5153267162     -1.8733923224
C     -0.1338793606     -4.4399119695     -1.2111835152
C     0.0435276764     -3.6792251779     -2.3930990977
C     1.3122809394     -3.0200877579     -2.661158049
C     -1.142038323     -3.1585664487     -2.9605235553
C     2.4624253795     2.604898537     -2.859157557
C     2.693490326     3.4397474281     -1.7386862813
C     3.7815594627     3.0934642245     -0.886089474
C     3.673713364     3.2988792367     0.5341899294
C     2.6066508423     3.9876499696     1.0442222188
C     0.2173526869     4.0011378394     -1.8054225804
C     1.5503033439     4.1716933791     -1.2014127927
C     1.6098125716     4.5509628158     0.159146812
C     -0.8978023545     4.4146932442     -1.0805043252
C     -0.7928704683     4.7341958266     0.326010467
C     0.4256633781     4.6914543848     0.941459034
C     -0.1162276483     0.2750091663     -3.8579147512
C     1.0676836762     1.0299948534     -3.8564062036
C     1.11395721     2.3544265496     -3.3431074525
C     -1.3092799214     2.2769885652     -2.9408647086
C     -0.0231938576     2.9680586051     -2.815408063
C     -1.3536806413     0.9347150004     -3.4831400128
C     -3.2338554156     -2.207990683     -2.7592100272
C     -2.4131785755     -1.273408152     -3.482961321
C     -2.5448678806     0.118103718     -3.2939174238
C     -4.2574729178     -1.7624929515     -1.9636923131
C     -4.5602676326     -0.3584068211     -1.9256427341
C     -3.682029355     0.6009047675     -2.5151483554
C     -3.6183425076     1.9245469322     -1.9295380513
C     -2.4421194262     2.766209528     -2.1745531857
C     -2.206053042     3.8478434293     -1.2954184422
C     -1.3718877449     -4.4103092907     -0.4900881558
C     -2.5361066825     -3.8130441928     -1.0203543192
C     -2.4297547197     -3.3179932658     -2.3430286672
C     -4.7377390616     -1.1799893107     1.4952540046
C     -3.728112399     -2.0305251939     2.0467545192
C     -3.100534091     -3.0461042454     1.3046522246
C     -5.0748627743     -1.3078092043     0.1534173552
C     -4.4477817962     -2.3245071664     -0.6367531772
C     -3.4934488022     -3.2211064384     -0.0957258903
C     -5.1161436471     1.1345913573     -0.0903028278
C     -4.825425028     1.2665027062     1.3359017481
C     -4.5806865029     0.1366249309     2.0856148917
C     -5.209538804     -0.1121250426     -0.6643332845
C     -2.8876145075     3.9103899641     -0.0322813226
C     -4.4145952214     2.1801239867     -0.7766763715
C     -3.9273494253     3.068152311     0.2426208596


