100

 C     1.1462032523     3.5473738398     -2.7010630869
C     2.2654082242     2.7260783978     -2.8876562817
C     3.3254026159     2.9068894886     -1.952232431
C     4.2803412694     1.8640302177     -1.6934510734
C     4.171722163     0.680798506     -2.3849039426
C     -0.1782591653     3.1306461999     -3.1232036961
C     -0.407680951     1.846843312     -3.6380150265
C     0.7392079758     0.962549819     -3.8554776197
C     2.0731042406     1.4254356572     -3.5178427738
C     3.0785577886     0.46122044     -3.3122627544
C     -0.8312272813     -0.8946547626     -4.0259799347
C     0.50574315     -0.4532914721     -3.9443781515
C     -2.4034933315     3.2160009148     -1.9872455551
C     -1.1470205904     3.7948923398     -2.3171617378
C     -4.4456303359     1.6138149004     -0.8838825928
C     -3.8473309662     1.1760814354     -2.0923877035
C     -2.7596677158     1.9766348841     -2.6366227799
C     -1.7610831068     1.326895165     -3.4891866359
C     -1.9437036458     -0.0214052047     -3.8193526301
C     4.5940399516     -1.8444983265     0.2937170458
C     4.883634092     -0.621819127     -0.378205696
C     4.5031357723     -0.5733300122     -1.7420499692
C     3.6587123733     -1.5744614132     -2.3138558564
C     1.9394816016     -3.309534262     -1.9055022275
C     3.2315745072     -2.7095212887     -1.5954026345
C     3.8148837803     -2.8721168915     -0.3102580183
C     -0.0031167076     -4.570884621     -1.0677355386
C     1.3367131367     -4.1974461424     -0.9119641147
C     1.4990965802     -1.426760146     -3.5158737615
C     2.7771927755     -0.934156558     -3.2581290972
C     -1.2107620853     -2.2032274447     -3.625988104
C     -0.2858819389     -3.0974912267     -3.0256807061
C     1.1054736809     -2.7046750552     -2.9136342599
C     -0.8116711966     -4.0535073886     -2.1207595089
C     4.8822216757     0.6245335065     0.3937383238
C     4.593234317     1.8465468919     -0.2787843302
C     4.2770125707     -1.8618800932     1.707088546
C     4.1651188038     -0.6791602797     2.3984039493
C     4.4974403413     0.5756242385     1.7567336701
C     3.3223174416     -2.9065936624     1.9634226268
C     2.2595846852     -2.7276816951     2.8961229198
C     1.1423880298     -3.5511908681     2.7071049319
C     1.8870503158     -4.2424842689     0.4537569298
C     3.0915185612     -3.5775191968     0.7276668608
C     1.0004875909     -4.3797079554     1.5565188741
C     3.650698053     1.5754078083     2.3260020474
C     3.2245562591     2.7096517214     1.6066510556
C     3.8112456055     2.8733463336     0.3232438403
C     1.9300789608     3.3084291438     1.9118990692
C     1.3303282355     4.1943305424     0.91775445
C     -0.0127630233     4.563803798     1.0686608142
C     2.7658963762     0.9325349321     3.2672463193
C     1.4854577177     1.4233953142     3.5198625434
C     1.0923440656     2.7010946658     2.9172389795
C     -1.2255867087     2.1926521243     3.6203552254
C     -0.2994548611     3.0909030534     3.0233228119
C     -0.8229899147     4.0453241841     2.1173658302
C     2.0630857887     -1.4271627476     3.5250700142
C     3.0689406937     -0.4607903619     3.3228009416
C     -0.1835272653     -3.1361831151     3.1238018705
C     -0.4170101057     -1.8542461064     3.6351345917
C     0.7287262428     -0.9667750415     3.8572304495
C     0.4923312193     0.448595139     3.9443781656
C     -0.84597913     0.8882920082     4.0208128406
C     1.8842710703     4.240944214     -0.4461561574
C     3.0900921662     3.5781206686     -0.7165441149
C     -0.8903350918     4.7629358446     -0.078615876
C     -0.4108876078     4.5712370442     -1.3544044915
C     1.0001513786     4.3767624214     -1.5522241582
C     -2.1989113486     4.3138601278     0.2537645666
C     -2.9838498722     3.5810540527     -0.701374043
C     -3.975706777     2.7390754722     -0.1691569555
C     -2.6103421442     2.1426979574     3.1977194295
C     -3.0757017807     2.9845643407     2.1578426342
C     -2.1851124958     3.9542733553     1.6391570887
C     -4.0418380827     2.4441837629     1.2681469788
C     -3.0543498373     0.7924575514     3.302806899
C     -3.9755251752     0.2299071638     2.3953191878
C     -4.5372229065     1.1299687169     1.4328751954
C     -1.1497164336     -3.8039614268     2.3115794774
C     -2.405744993     -3.2286451473     1.9769370398
C     -2.7670865601     -1.9885494553     2.6241502899
C     -1.7719824113     -1.3358564649     3.4807151988
C     -1.958586288     0.0102392764     3.8101814747
C     -4.4475092646     -1.6325260787     0.8639385943
C     -3.8531094008     -1.1921479946     2.0764421235
C     -2.19123616     -4.3274890335     -0.2610006323
C     -0.8847447545     -4.7735735219     0.0756923636
C     -0.4100374318     -4.5784110618     1.3544626493
C     -3.9726639052     -2.7551453413     0.1521404237
C     -2.9798699764     -3.5955506869     0.6893484819
C     -2.5959265909     -2.1572246076     -3.211245819
C     -4.034913883     -2.4620212342     -1.2866912067
C     -3.0638620113     -2.9999752346     -2.1721329087
C     -2.1729478661     -3.9668180587     -1.65030805
C     -4.9008453585     0.6547158959     0.1172652261
C     -4.9014841975     -0.6747464662     -0.1389186764
C     -4.5316180761     -1.1489913771     -1.4529633155
C     -3.9662200255     -0.2467086939     -2.4128763986
C     -3.0408883622     -0.806520169     -3.3157188271


