100

 C     3.6282130147     -2.1658597902     -2.5932337261
C     4.3816350252     -1.038117508     -2.3739246911
C     3.8945827937     0.2346065156     -2.8277486784
C     2.6332103234     2.718241743     -2.52268582
C     -1.5191180931     3.0659917327     -2.7454693569
C     -0.1328857206     2.9918086459     -2.7646436022
C     0.4990750897     1.8055527859     -3.3228389814
C     1.937485477     1.6893987682     -3.1988423313
C     2.5840346795     0.3981609421     -3.3541255347
C     -0.3101139874     0.6434303967     -3.6095085955
C     1.7556961405     -0.7849118995     -3.541515917
C     2.3292893567     -2.0425467788     -3.2160301061
C     4.9193283304     -1.7835270881     -0.0986887604
C     4.1565116371     -2.9922129492     -0.3377706467
C     5.0633008292     -0.8427211701     -1.098029292
C     3.5479800028     -3.197439809     -1.5794511211
C     2.2492698319     -3.764203833     -1.6360691896
C     3.4262889207     -3.2854122164     0.852845427
C     2.1450026566     -3.8558923381     0.8248733546
C     1.5617417795     -4.1671306371     -0.4762471907
C     -1.9505594604     -3.7701824988     -1.7478350705
C     -0.5641420842     -3.8846644065     -1.7960800936
C     0.1391030897     -4.3689588611     -0.6118354756
C     -0.5969404097     -4.5377186611     0.5701591898
C     -2.3278162937     2.0091570795     -3.2377560544
C     -1.7539477343     0.7484122714     -3.5504818121
C     0.3119090307     -0.680518763     -3.6027972278
C     -2.5824552268     -0.4327804272     -3.3522798873
C     -1.9360457163     -1.7224411622     -3.1838696727
C     -0.4975288625     -1.8397950457     -3.3055111569
C     0.1339474283     -3.0205515465     -2.7352368944
C     1.5201625575     -3.094538987     -2.7141566625
C     -2.6323560433     -2.7446404891     -2.4983038894
C     3.8234861349     0.3933268612     2.6943220951
C     4.6023799693     0.0601268859     1.569960912
C     4.6589083811     -1.334202967     1.2505146897
C     3.7575361956     -2.271380945     1.8416410397
C     -0.0537488517     -4.0666641835     1.8345552845
C     1.2524099009     -3.6061569215     1.9584161984
C     1.5298457199     -2.5262716951     2.9063434149
C     2.8180431496     -1.8751876702     2.821438988
C     2.9622735959     -0.5607134342     3.3158695533
C     4.780330689     1.0631318913     0.5113750575
C     5.031745645     0.5720403032     -0.792149618
C     3.221601947     1.7006195269     2.8483978588
C     3.3838003834     2.7074054834     1.8601937665
C     4.1546165546     2.3874151635     0.6522329468
C     2.3487539739     3.6751900087     1.8100613888
C     2.0134576653     1.5513301563     3.5763399942
C     -1.8393661111     -0.1075001841     3.8409639759
C     -0.5818095875     0.4725511795     3.9212749984
C     -0.4367377938     1.8792564112     3.5279073386
C     0.8998390352     2.4040398319     3.3779042964
C     1.1292236825     3.5276396527     2.5578177927
C     -1.1326966852     -3.5044489968     2.5911207092
C     -0.904002017     -2.3729060248     3.4004119247
C     0.4324471089     -1.846676998     3.5464262922
C     0.5771871203     -0.4362010674     3.9261950187
C     1.8348148832     0.1430437386     3.8413022001
C     -2.0177852237     -1.5183054929     3.5895858813
C     2.0029079444     4.3306789452     0.5730260985
C     2.6927547874     4.0003982705     -0.57722678
C     3.8100401307     3.0919605104     -0.5268278375
C     3.8446624234     2.4389521964     -1.8071990057
C     4.4523547878     1.2180499963     -1.9416826703
C     0.5951838038     4.5411410009     0.5264214633
C     1.9507761711     3.7510484728     -1.7828313718
C     0.5644027451     3.865043953     -1.8333646381
C     -0.1398501226     4.3608624144     -0.6544962224
C     -3.4282833919     3.2916412649     0.8178727144
C     -2.146974167     3.8618288645     0.7854351515
C     -1.5626022981     4.160357637     -0.5181627341
C     -2.2491422768     3.7461398228     -1.6745872592
C     -2.9663747412     0.5910932187     3.3077394098
C     -2.821716349     1.900685908     2.8006427945
C     -1.5335916084     2.5525733146     2.8802970185
C     -1.2553468046     3.6231626395     1.9221243461
C     0.0509198748     4.0824435228     1.7948923061
C     -3.7603743043     2.2872990572     1.8162272051
C     -4.9205152608     1.7805431181     -0.1202500762
C     -4.1574938828     2.9868425002     -0.3704526554
C     -3.5478999379     3.1799499882     -1.6135567026
C     -5.0636355823     0.8300380018     -1.1104951916
C     -3.8270615097     -0.3689665443     2.6947827364
C     -4.6049954315     -0.0467508055     1.566562699
C     -4.6612424358     1.3443963117     1.2334930079
C     -2.351594213     -3.6592899388     1.8438098109
C     -4.1564589749     -2.3828730363     0.6719476407
C     -3.3866738236     -2.6910654941     1.8836287323
C     -3.2253110581     -1.674689982     2.8621080071
C     -5.0323505768     -0.5816730443     -0.7908127898
C     -4.7820465351     -1.0600300943     0.5176510986
C     -4.4519850981     -1.2388582379     -1.9335003801
C     -3.8444152882     -2.4583893368     -1.7866033455
C     -3.8108839479     -3.0988791017     -0.4998957469
C     -2.6935641192     -4.0077635721     -0.54049021
C     -2.0047018098     -4.3268162249     0.613516157
C     -3.6272734182     2.1385335523     -2.6173043905
C     -4.3808866684     1.0129817955     -2.3876539738
C     -3.8934508605     -0.264105394     -2.8286389476


