100

 C     -2.8385644228     -0.6448867513     -3.5238149353
C     -1.9999345746     -1.7689689463     -3.408841449
C     -2.466905118     -2.8421237752     -2.5993662499
C     -0.5836930527     -1.6095389962     -3.6276703806
C     0.2950533946     -2.6532139692     -3.1224357795
C     1.6635265702     -2.4474126346     -3.2262017344
C     2.212878429     -1.1989013163     -3.6724004381
C     1.3840859393     -0.068774167     -3.8320054328
C     -2.2957329924     0.642499744     -3.8013605907
C     -1.2919184229     3.1237030434     -2.9730706639
C     -0.3777358221     2.1660341241     -3.4764989293
C     -0.9055145916     0.8628798695     -3.8932876035
C     -0.0407941453     -0.2974753975     -3.9043249315
C     -0.1617671659     -3.6346006973     -2.147366735
C     -1.551431705     -3.7354325645     -1.9494043067
C     2.6009034667     -3.0717191486     -2.3249023683
C     2.1426398607     -3.7774496008     -1.1886492663
C     0.7301580863     -4.1120322837     -1.1072685321
C     0.1545969328     -4.4926956102     0.1771182903
C     0.9750792799     -4.3661131548     1.3251121397
C     3.7868313225     -2.2598573525     -2.302242325
C     4.5018466636     -2.0930348613     -1.1161588657
C     4.042347811     -2.7530525106     0.0581686709
C     2.9393336637     -3.6381725349     0.0236640141
C     2.2981155446     -3.8575120007     1.2605118371
C     4.0505723149     0.1271201533     -2.813173932
C     3.5491300177     -1.1108987389     -3.1539278604
C     1.9186679944     1.243881123     -3.4636703689
C     3.2420965396     1.3010929683     -2.9861318655
C     1.0095754162     2.3308739806     -3.1231172326
C     -1.2979101192     -4.4551380021     0.3895892262
C     -2.1269023625     -4.1573313375     -0.7132233366
C     0.4211945243     -3.9345733049     2.5983129911
C     -0.9282103454     -3.7813351891     2.7381960481
C     -1.8190988006     -4.143538205     1.6794682706
C     1.3113136937     -2.9748270919     3.1743929753
C     -1.4512819471     -2.6247228512     3.4310732884
C     -0.6100262965     -1.6003580523     3.8838368078
C     0.8444565224     -1.7836998133     3.7606065212
C     4.2152670166     -1.836104793     1.1739119085
C     3.3498282005     -1.8569497126     2.2915835687
C     2.5094971214     -2.9834550517     2.3887579818
C     2.9701580505     -0.6217580618     2.9433478015
C     1.7316993657     -0.6304862396     3.7217015245
C     1.159744541     0.5951889371     4.0721348781
C     -2.9738309846     -3.3054184779     1.8180374439
C     -3.7940893862     -2.9763114773     0.6984010535
C     -3.3821726272     -3.4756733399     -0.5696279437
C     -4.4858491434     -1.7414604346     0.7557081476
C     -2.7493907248     -2.3613709022     2.8911793931
C     -0.2821231241     0.7772167298     4.1795345365
C     -1.1838459324     -0.2613810301     3.9384475852
C     -2.4750948295     0.0526661076     3.3354893571
C     -3.2581845344     -1.0457036278     2.8132587927
C     -4.2255306175     -0.7950019559     1.8039515495
C     -4.8088711673     -1.0089809689     -0.442199215
C     -4.3354473148     -1.4725100709     -1.7062738853
C     -3.6150058753     -2.7006065845     -1.7595577597
C     -3.998143795     -0.4822729036     -2.6653472748
C     -4.7970554596     0.3810319326     -0.121166946
C     -4.4492713128     1.3679262388     -1.0655528614
C     -4.1500232601     0.9077973016     -2.3857018995
C     -2.681345655     2.8030825012     -2.7634769113
C     -3.1729780271     1.6016370255     -3.1806158593
C     -2.6002654844     3.7472541826     1.2192915878
C     -3.5216688389     2.7494836881     0.8489673359
C     -3.854613301     2.6098138149     -0.5758274994
C     -3.1097763417     3.3760591077     -1.5039053386
C     -0.5787009729     2.1177110834     3.8527429627
C     -1.783155147     2.4481056251     3.1649254087
C     -2.7350743447     1.4001294479     2.860963581
C     -3.6660412244     1.6113445326     1.7487292005
C     -4.3939113741     0.5074835692     1.2679418201
C     -1.7510928319     3.6133683779     2.3645515947
C     -0.539930415     4.75852757     0.7343976898
C     -1.8623835209     4.5026652328     0.2402641454
C     -2.0588647677     4.250160748     -1.0934902725
C     1.8264201121     4.3562752931     0.5147012449
C     0.5959714572     4.628563908     -0.1187055566
C     0.6630097134     2.793812672     3.5921177244
C     1.904141125     3.968781255     1.8841408917
C     0.7238326312     3.8501511423     2.6640953198
C     -0.4997600723     4.2841652742     2.0815995661
C     4.7546588904     -0.6154948192     0.6923566882
C     4.3709010659     0.6228998298     1.2619773997
C     3.5124353513     0.6250844352     2.4497685646
C     2.9873018131     3.0184253527     2.0082497866
C     2.873278383     1.8752958774     2.8416147091
C     1.7308264084     1.8312139264     3.6898677375
C     4.5014600351     1.581136855     -1.032552258
C     4.8047772791     0.2906875958     -1.5781152159
C     4.9928258335     -0.7805398886     -0.7335521982
C     3.644597994     2.9298346409     0.7474565725
C     4.3628874983     1.777676863     0.3681542931
C     -0.9121183563     4.0708100711     -1.9756201249
C     0.4015271053     4.1640659412     -1.5041803669
C     1.4042513498     3.3424927766     -2.1635424034
C     2.8795367322     3.6901652197     -0.1950651729
C     2.6973997561     3.225348368     -1.5187215597
C     3.5971338308     2.2275551422     -1.9422277913


