100

 C     3.0127649496     2.1515640824     2.4196860541
C     4.1464630146     1.3439293122     2.2176142905
C     4.9794164628     1.482551651     1.0515454271
C     2.6935377285     3.1814950519     1.4230722381
C     3.507551395     3.275442657     0.2876322816
C     4.636805985     2.4169975842     0.0834946346
C     0.4945328598     3.4360291762     2.4010551743
C     1.3344218095     3.713135436     1.3298684471
C     0.7252659626     4.0626975127     0.039974632
C     1.5458268528     3.9029747323     -1.1368472335
C     2.905212566     3.5444632663     -1.007504148
C     0.9319286155     3.5527145714     -2.360994254
C     -0.9163837586     3.5786490924     2.3032979489
C     -2.8897129455     3.5662450949     0.9499093562
C     -1.5287780882     3.9200508548     1.0759032384
C     -0.7075549094     4.0651372179     -0.1023503108
C     -1.3182486188     3.7061080213     -1.3889121655
C     -0.479595322     3.4153021085     -2.45743114
C     5.4476256999     -0.1848811112     -0.6927679458
C     4.9787783892     0.7566119674     -1.686879107
C     5.4491072773     0.1752066095     0.6629007095
C     4.6538460181     2.0478679747     -1.3160455403
C     3.5561688544     2.7159695554     -1.9667940225
C     2.7982875778     2.0556337544     -2.981572814
C     1.5256917935     2.5755896238     -3.2187150576
C     4.6462775471     -2.0540737766     1.2870038177
C     4.6261895673     -2.4231225141     -0.1125190203
C     4.9771964954     -0.7642424343     1.6574967137
C     4.9718599316     -1.4901735419     -1.0809243761
C     4.1383172523     -1.3479276612     -2.2461345431
C     3.493008832     -3.2766510452     -0.3154876385
C     2.6782397526     -3.1791611353     -1.4500875145
C     3.0009124927     -2.1506261333     -2.4470333097
C     3.0276277818     0.6368328997     -3.2552802955
C     4.1426554716     0.0371160479     -2.6476121683
C     0.463938099     1.772226086     -3.7766137067
C     0.6101221964     0.3761480103     -3.9572360137
C     1.9080371187     -0.2145345584     -3.6541775864
C     1.9551274804     -1.6051678838     -3.2882418013
C     0.7640905918     -2.3505568212     -3.3671051685
C     1.5178234622     -2.5681960146     3.19290102
C     2.7924200279     -2.053774698     2.9544438926
C     3.5463782738     -2.7173968186     1.9388873246
C     2.8908431125     -3.5430524656     0.9802718327
C     0.477145259     -3.4241343534     -2.4258045616
C     1.3169255635     -3.7048898162     -1.3554830368
C     0.7075872704     -4.0518056593     -0.0649604376
C     1.5300468746     -3.8956522943     1.1110175122
C     0.9189381627     -3.5427240453     2.3357921731
C     3.0282043873     -0.6359845802     3.2279117061
C     4.1451989323     -0.041119283     2.6190899293
C     0.460147023     -1.7602261178     3.7518950268
C     0.6125800449     -0.3647970124     3.9323580681
C     1.9127349217     0.2202410652     3.6279615574
C     1.9654878528     1.6106556237     3.2619743852
C     0.7777819312     2.361214876     3.3420636321
C     -0.7741403284     -2.3155639674     3.364840194
C     -1.9619350603     -1.5657908901     3.2789565131
C     -1.9088064635     -0.1719977966     3.6318084827
C     -0.6083327642     0.4158698695     3.9293325034
C     -0.4560963248     1.8095408027     3.7356108463
C     -4.1423302589     0.0798674952     2.6228764135
C     -3.0247000149     0.6804285811     3.2249052365
C     -3.5071120648     -3.2584656773     0.3220164074
C     -2.6919027816     -3.1538461818     1.4556641448
C     -3.0100904114     -2.1145945588     2.4428897774
C     -4.1440087128     -1.3088930945     2.2344334098
C     -0.9342748561     -3.5606237331     -2.3265919264
C     -1.5468800934     -3.8993646459     -1.0985652189
C     -0.7250797192     -4.0480203743     0.0788416595
C     -1.3328830613     -3.6863430318     1.3660315814
C     -0.4918741678     -3.3991820721     2.433684356
C     -2.9061335712     -3.5396519102     -0.9711686012
C     -2.7892123543     2.0955856641     2.937880835
C     -1.5143688323     2.6122227011     3.170154222
C     -3.5442383457     2.7496385393     1.916924239
C     -5.4482965023     -0.1548320781     0.6701807674
C     -4.9753461831     0.7939244256     1.6554052755
C     -4.6448216836     2.080215433     1.2724600494
C     -5.4482464932     0.1925004191     -0.688811642
C     -4.6551043291     -2.0460169778     -1.291917027
C     -4.6365866068     -2.401976059     0.1110118383
C     -4.978188482     -1.4584728378     1.070595772
C     -4.9804307607     -0.7582997032     -1.6745218001
C     -1.5289480837     -2.5916061673     -3.1928340292
C     -2.8012954191     -2.0694363978     -2.959248399
C     -3.5581032804     -2.7202069016     -1.9375143372
C     -0.7675258794     2.33291995     -3.3882899806
C     -1.9584788994     1.5883145285     -3.3011815197
C     -1.9117669083     0.1943061032     -3.6540873396
C     -0.6141663986     -0.3992058314     -3.9529506966
C     -0.4677844658     -1.7935259235     -3.7593823701
C     -4.1453249007     -0.0478624935     -2.6428538683
C     -3.0309318853     -0.6532683359     -3.2460324791
C     -4.6262072977     2.4360973869     -0.1304847204
C     -3.4932406121     3.2876756258     -0.3426554934
C     -2.6796629346     3.1795195299     -1.4771392794
C     -4.9728930042     1.4940878668     -1.0897141614
C     -4.1405722317     1.3408916648     -2.2544112374
C     -3.003380451     2.1416613119     -2.464036504


