100

 C     -4.9230763858     0.6486233207     -1.915562191
C     -4.0634745134     1.6208047948     -2.553413399
C     -5.3082635841     0.8371084644     -0.5842424896
C     -3.7177242249     2.7874195952     -1.8966554559
C     -2.3982940271     3.3357531506     -2.0497578165
C     0.9901884817     2.273939818     -3.2215655594
C     2.3445411516     2.5323380166     -2.8961174841
C     -0.0257764196     3.0515276975     -2.5667285125
C     -1.4058675142     2.6934332242     -2.8117964
C     -1.7364518583     1.4045296496     -3.413195336
C     -3.043990258     0.9115425473     -3.2932414766
C     -0.7050728586     4.2063367968     -0.4618883767
C     -2.0408589243     3.975380975     -0.814494571
C     1.9962779571     4.2375088765     0.3485357637
C     1.7044351996     3.9883182082     -1.0240082398
C     0.3220505379     3.8882733401     -1.4350937492
C     2.6971902906     3.3449475159     -1.7906733593
C     -4.9966618604     -1.5549243182     -0.1359093529
C     -4.5699268856     -1.7496931829     -1.5089396349
C     -5.2726149136     -0.2813060012     0.3354410209
C     -4.4784225441     -0.6586216786     -2.3532046745
C     -3.2945111668     -0.4990810554     -3.1551855071
C     0.1912476126     -1.8720964594     -3.3224396814
C     1.4588651945     -1.3781864155     -3.6467658644
C     -0.9234913722     -0.9666068344     -3.4858282576
C     -2.2322237611     -1.4286890775     -3.1057425543
C     -2.3654298361     -2.6252049267     -2.2816410342
C     -3.5445580342     -2.7568187198     -1.5120769817
C     0.6543098581     0.9537051424     -3.7561336174
C     -0.6845166637     0.4503275453     -3.6740605969
C     1.6843890294     0.0064630553     -3.9020085448
C     -2.6896917626     -2.8556088236     2.4460079055
C     -3.7515011686     -2.0784055003     1.9476800196
C     -4.2747784035     -2.4784866229     0.6863066641
C     -1.2311515582     -4.1551647319     -0.6535143893
C     -1.1804871356     -3.3818842967     -1.8829435095
C     -3.4811872874     -3.3028616751     -0.1774215199
C     -2.3403974812     -3.9735266154     0.2746378592
C     -2.0813522993     -3.8890546064     1.6704497061
C     0.0906200447     -3.0652274033     -2.476573987
C     -3.8337267998     -0.6828827186     2.3512286696
C     -4.6677461333     0.1714728295     1.5766662319
C     -1.6701802606     -2.2874824662     3.2803090617
C     -1.6345643918     -0.9249092499     3.5589429755
C     -2.7563929823     -0.0886784168     3.1096822983
C     -2.5665088258     1.3398553896     3.0320413211
C     -1.3623677769     1.8692239107     3.5258870449
C     0.220948099     -4.5532621089     1.3346160089
C     -0.7566642732     -4.0859522357     2.1740558785
C     -0.4511357357     -3.0544974812     3.1252334827
C     0.8343315063     -2.4851700537     3.1992174695
C     -0.32154684     -0.3672613475     3.8545982826
C     -0.260678297     1.0217233746     3.9726042969
C     2.6810006273     -1.9434475491     -3.1027113569
C     2.6218739469     -3.0234706479     -2.2091576136
C     1.3165160813     -3.6280152909     -1.9304851096
C     1.2151033548     -4.4015457843     -0.7529045632
C     -0.0212891245     -4.6136748424     -0.1062035578
C     3.6666788595     -3.0669171713     -1.236590806
C     -3.3138262716     2.1702726876     2.104725549
C     -4.41026317     1.5724505691     1.4510636734
C     -4.840633955     2.0002009937     0.1353686967
C     -2.6578228573     3.3162079851     1.476328008
C     -3.047272679     3.6610817345     0.1589470501
C     -4.1165988322     2.9824824595     -0.5169396219
C     0.5933979154     3.0469594595     3.3186869968
C     -0.819172658     3.0898954502     3.0592219921
C     -1.3457991021     3.7295571305     1.8996742404
C     1.4610855348     3.7223129349     2.5154436255
C     0.9704402682     4.3470873657     1.3049235097
C     -0.401824645     4.2850030191     0.9490163412
C     1.5736096039     -4.1765144884     1.5570734076
C     1.9131630814     -3.1159978976     2.4509579798
C     0.9251197415     -1.0869140374     3.6127551686
C     2.1534868002     -0.361276485     3.4058848872
C     2.1573004771     1.0900713684     3.5069594086
C     0.9465772681     1.7302381705     3.8415356007
C     3.1345377844     -2.3786176035     2.2020032087
C     3.2712614303     -1.0237028191     2.7123539537
C     4.2653944218     -0.205864294     2.1308568763
C     4.1656226721     1.2346529232     2.1070347707
C     3.1486964923     1.9008949428     2.7944988691
C     2.7788257292     3.1905783406     2.2824338849
C     3.394183198     -3.6287260163     0.065174615
C     2.2321411453     -4.295776182     0.2850794405
C     4.7618505144     -1.835441605     0.3934990463
C     3.9362806167     -2.7662041501     1.084524174
C     4.9601914153     -0.5868523726     0.9321281366
C     3.650508834     -0.9067794802     -2.9854285518
C     4.5508968898     -0.8350135728     -1.885592422
C     4.5683134418     -1.9786451181     -1.0453446224
C     4.3095863152     1.6536936096     -1.9357148769
C     3.3712902591     1.5256135795     -3.028977974
C     3.041971343     0.2907416459     -3.5211851302
C     5.103337648     0.5726510858     0.0823271133
C     4.8659385172     0.4853672247     -1.3121212692
C     3.1558273533     3.5920086462     0.9796712874
C     4.6728189475     1.7088864943     0.8474318326
C     4.0846330763     2.8393769924     0.2203994912
C     3.9094337453     2.7889083796     -1.1878331972


