100

 C     -5.0306157496     0.7239477669     -0.3000055848
C     -3.5866553212     -3.1101550008     0.4943735392
C     -4.3976513675     -2.008995944     0.1689769592
C     -4.6945689108     -1.1249242973     1.2489296752
C     -4.9793972366     0.2777168961     1.0000725852
C     -1.6861996494     -3.9616559064     1.5556559667
C     -2.8992555157     -3.2025147407     1.7448082182
C     -2.9709996674     -2.1805288617     2.7004218831
C     -3.992511704     -1.2104425744     2.4828524177
C     -0.4729241854     -3.6258152453     2.189118577
C     -0.4812738307     -2.4966076502     3.1287537358
C     -1.7426429351     -1.831656119     3.4176605979
C     2.0213920006     -2.3480721009     2.8851021548
C     0.7664380408     -1.8290145754     3.4182531182
C     3.1530953409     -1.5011882556     2.9319122978
C     2.0288048014     -3.4437733032     1.9288393505
C     0.7703304798     -4.0598502085     1.5513480849
C     3.1298721883     -3.5488854697     1.0303079717
C     0.6934927591     -4.6774464689     0.2716621469
C     -2.7226443599     0.4613694853     3.6961388316
C     -4.3753227155     1.07945388     2.0329894108
C     -3.8416246478     0.1436219335     2.9767651387
C     -0.4881862052     0.158317651     4.1265495453
C     -1.7020665662     -0.5342006948     3.9778144972
C     0.7469791831     -0.4504127049     3.8873743787
C     -2.094336916     1.7378008548     3.5134641164
C     -2.5116524583     2.6458186013     2.5120938116
C     -3.704183808     2.3013750388     1.7401023935
C     -3.83969633     2.8092662304     0.3853550989
C     -4.4950416974     2.0324145065     -0.6172279131
C     -2.869121745     3.7131805097     -0.0858356833
C     -0.7195736037     1.5729202722     3.8423140784
C     0.2878805308     2.3954538721     3.3374358838
C     -0.0836203358     3.4414562361     2.3989824289
C     -1.4846156894     3.5348566602     1.9734211739
C     -1.7487970956     4.1370639592     0.7277311897
C     2.3071894602     3.6323653015     1.8260832368
C     0.9601878597     4.0284300601     1.5886350487
C     3.077034678     -0.1240576067     3.3340828608
C     1.8651990712     0.4526533471     3.7143489871
C     1.6392079284     1.8757577568     3.427787949
C     2.6384189953     2.5902354943     2.7580284447
C     -2.4293240888     3.703581795     -1.4406459041
C     -2.8757497269     2.7396028223     -2.3637976492
C     -4.0098356239     1.9898081736     -1.9588565569
C     -4.2197352547     0.6375006188     -2.4412982285
C     -3.3126462642     0.0940815817     -3.3153887615
C     -1.0802644144     4.1949483529     -1.4815930928
C     1.2174592068     3.956394623     -2.0779148866
C     -0.1328139429     3.7149399663     -2.4115574295
C     -0.4931067685     2.5745989853     -3.2605664646
C     -1.8847392834     2.1504282453     -3.2810032805
C     -2.1625292159     0.8640772995     -3.7643503492
C     0.6499134     4.534674609     0.2622316197
C     -0.6962874666     4.5417945554     -0.1452325448
C     1.6051292229     4.4262392769     -0.7795982528
C     -4.3689531319     -1.5149830261     -1.2027534581
C     -3.4169602764     -2.0943917465     -2.1476742164
C     -4.7870490432     -0.1721578061     -1.4050018298
C     -2.9351121487     -1.2792154849     -3.1949581791
C     -1.2543768207     -3.4106423329     -2.4061432765
C     -2.5701979604     -3.2191269178     -1.7733319372
C     -2.7716561445     -3.7780211565     -0.4972796058
C     -0.3223845371     -4.2517810967     -1.78106903
C     -0.5395957052     -4.7334598707     -0.4455676232
C     -1.7108087083     -4.4347730014     0.20129241
C     2.262837124     3.1108691061     -2.5689559864
C     1.9402821589     1.9698722707     -3.3289134217
C     0.5517573864     1.6671349505     -3.6641948848
C     0.224800803     0.2836976174     -3.9758747287
C     -1.1244999222     -0.0635001935     -4.0420676548
C     -1.5849265649     -1.3853025195     -3.6898010916
C     1.1709489241     -0.8067055192     -3.7826726575
C     0.7244078647     -2.1391704147     -3.4030510945
C     -0.7057959077     -2.3966035787     -3.2944659683
C     2.8833517566     0.9169378902     -3.2860664525
C     2.5042168325     -0.4458929701     -3.5210660728
C     1.6495265538     -3.026050914     -2.724368421
C     1.0976005749     -4.0719539897     -1.9496280384
C     3.2823188496     3.5817675609     0.7708816672
C     2.9211609195     3.9181265991     -0.5220139138
C     4.1386706274     1.9407048942     -1.4064519217
C     3.3465663746     3.1036726341     -1.6176132374
C     3.9718528096     0.9102135531     -2.3538339652
C     4.6608332519     -0.2382182718     1.6206398357
C     4.0633437994     0.6230290487     2.5899924206
C     3.8394241579     1.9449857808     2.2951940713
C     4.847366061     0.1817296031     0.2827731788
C     4.5749074547     1.5882037161     -0.0474677776
C     4.1691921316     2.4555526631     0.9959431454
C     4.4469133862     -2.198675619     -0.39335932
C     4.1578114323     -2.5497727642     0.982820735
C     4.200538536     -1.5758191288     1.9413222813
C     4.2717883828     -0.4629459443     -2.0369851039
C     4.7258150753     -0.8513375992     -0.7546303662
C     1.722167597     -4.4767374473     -0.7160965067
C     3.4038387772     -1.2986608385     -2.8095016123
C     2.9973659733     -2.5756130738     -2.3781178403
C     3.642757868     -3.0598274849     -1.2096967293
C     2.9274405769     -3.949346668     -0.3304326443


