100

 C     -2.4210368003     -3.3184056966     -2.2951456295
C     -2.2896576078     -3.7294793086     -0.9380732154
C     -3.2820962493     -3.2444404848     0.0084355316
C     -2.9282081531     -3.1333074335     1.4134886504
C     -3.6899205524     -2.2356600779     2.2127543873
C     -3.0953579828     -1.5238943263     3.3111046788
C     -1.5681185278     -3.4698792786     1.8525842159
C     -1.1056545107     -2.8814696129     3.0566841941
C     -1.8369765335     -1.8330869404     3.7179391779
C     -1.2733426783     -3.1382915628     -3.1306416729
C     -0.9604755804     -4.1406557391     -0.4750970537
C     -0.5647572992     -3.9476022571     0.9229191935
C     -0.074416775     -3.6400403339     -2.7428476569
C     0.0639563808     -4.2361175823     -1.4387159605
C     -1.3334090637     -1.8490730897     -3.7772553819
C     -0.1828445926     -1.0282902039     -3.8661965885
C     -0.3812297494     0.3971634646     -3.8164448366
C     -2.8178260945     2.1198291     2.912648498
C     -2.5710694106     0.8985517627     3.5565835623
C     -3.5191830459     -0.138708413     3.2946870695
C     0.3832663314     -1.3137600359     3.9336756762
C     -0.9064007168     -0.7977781747     4.1261502434
C     -1.1929503051     0.5728758847     3.9162289412
C     1.4825596992     -0.4868893104     3.7068696137
C     1.251847701     0.9335848999     3.5407543196
C     -0.0914456978     1.4451966107     3.5571366782
C     -0.3789848824     2.6814730451     2.8185231692
C     -1.7211632139     3.002441251     2.558361491
C     3.5893727349     1.1244775762     2.8186158794
C     2.3250616936     1.7372538289     2.9785369167
C     3.5574880581     -2.8025870408     1.6340689583
C     2.5681111668     -2.451148995     2.557953369
C     2.6729704461     -1.1415016078     3.206505957
C     3.761473705     -0.3153777359     2.913381088
C     1.444598184     -4.1287734621     -1.1014301005
C     1.8561566232     -3.9952692226     0.2345446793
C     0.8458677813     -3.8344268226     1.26015633
C     1.2611757416     -3.0969178112     2.4422282333
C     0.2693620578     -2.6176215723     3.2814643702
C     3.167646539     -3.4930775132     0.4236511519
C     -4.5111256996     -0.0153063516     2.2863850353
C     -3.8657621041     2.2785330703     1.9586696827
C     -4.6623341879     1.1792850505     1.5319941365
C     -3.4384486785     3.3026996115     1.0330703442
C     -3.7967212202     3.2259991612     -0.2918484406
C     -0.584652463     4.0228424747     -1.930477257
C     -2.8439339096     3.6212104276     -1.2986444052
C     -1.5759662338     4.1541955413     -0.9472991548
C     -2.1080429123     3.7482528466     1.4077822981
C     0.2343668544     4.0493720464     0.8141879152
C     -1.1621480559     4.1690882048     0.4612361434
C     2.5555653345     3.898875914     -0.0056840195
C     1.2146464801     4.2215377659     -0.2462427384
C     0.7984684429     4.1293756742     -1.5972759747
C     2.9807308509     3.3763573769     1.2662726442
C     0.6284508981     3.3229021174     2.0028606159
C     2.0149079288     2.9238726578     2.1905927294
C     -4.6497332343     -1.3251687892     1.6517208139
C     -4.5602332548     2.0936792281     -0.7731613723
C     -5.0119004366     1.0783951134     0.1099182273
C     -5.1672759583     -0.2084246364     -0.4703873103
C     -4.9686861497     -1.4169577023     0.3215499886
C     -4.0441642707     1.7817641307     -2.0670949675
C     -4.0045097354     0.4690476664     -2.5675774748
C     -4.7090174869     -0.4949310631     -1.7885146218
C     -4.3033088666     -1.882719931     -1.8134756041
C     -3.3374662011     -2.2896738689     -2.685058972
C     -2.982544347     2.7091870522     -2.3856798618
C     -0.7116162488     3.0900194063     -3.0066059685
C     -1.8641464907     2.3064218984     -3.1606540227
C     -1.7193189926     0.9332987728     -3.6065413166
C     -2.855218661     0.0505035538     -3.3929823923
C     -2.6297444073     -1.3239431746     -3.5221991391
C     -4.3407909304     -2.4267753756     -0.4836642132
C     4.4557130355     2.6275242671     -0.3709862276
C     3.3981011293     3.3359475607     -1.0236462826
C     2.8084400105     2.8317193912     -2.2142698018
C     1.5403620492     3.3356935179     -2.5198343207
C     4.9583213846     1.4775542369     -0.9494261369
C     5.2343052884     0.4595295135     1.2745694633
C     4.5444148324     1.597695613     1.8512804093
C     4.2189973383     2.6841097471     1.060317887
C     5.4229651172     0.395674871     -0.1112157301
C     4.8579432612     -1.9895319294     -0.1064927718
C     4.6534312073     -1.929937287     1.3263212933
C     4.7835388541     -0.7148096046     1.9860722173
C     5.1573073037     -0.8407961627     -0.8134496613
C     2.1210242138     -3.4022512655     -2.1434407809
C     3.2811689614     -2.6694309823     -1.9008404417
C     3.9178000009     -2.9273739737     -0.654124736
C     0.5982003774     2.582286149     -3.2985608108
C     0.8057042017     1.2315283755     -3.6082533807
C     3.149214374     1.4999663015     -2.6962677182
C     2.1275837296     0.653232744     -3.3048467734
C     2.2750359141     -0.7764957561     -3.2454390954
C     1.1209045663     -1.6152369181     -3.5462137897
C     1.1385597494     -2.947886544     -3.074817166
C     4.2856525496     0.896749334     -2.1075207841
C     4.4105311155     -0.514489928     -2.026413845
C     3.4119549614     -1.3651629192     -2.5422704918


