100

 C     -0.8338870609     4.492241433     -1.1177240005
C     -1.7414366273     4.3808588707     -0.0504094008
C     -3.0186301368     3.8580188112     -0.3848929784
C     -3.8752992753     3.3061672673     0.6158502837
C     -3.3878617742     3.1474011084     1.910874737
C     0.5562610812     4.6167795024     -0.9022205882
C     1.1389604966     4.3952339198     0.3728054701
C     0.2366090109     4.0566291938     1.4639616871
C     -1.1906660427     4.1624125559     1.2778691383
C     -2.0372657741     3.5198622199     2.2222710806
C     2.0920170546     2.8953930255     2.5811855821
C     0.7319405568     3.1851724042     2.5223214876
C     3.0142774301     3.3039112077     1.551641538
C     2.5376108306     3.9713626385     0.4038260054
C     3.2281172354     3.6652873729     -0.8066270602
C     -5.0393655888     1.1457573827     0.7267154588
C     -4.5244766364     0.9703362492     2.0882151588
C     -4.6673551735     2.2543231293     -0.0000551742
C     -3.6900144554     1.9208684131     2.6340427665
C     -2.4939515209     1.4909386346     3.3006877022
C     -1.1609818548     -2.5346651595     2.7930549512
C     -0.2489578752     -1.5405922537     3.3506971912
C     -2.1088956399     0.1304197964     3.3907840028
C     -3.0385191157     -0.869683349     2.8915309109
C     -4.2432227627     -0.4160385458     2.2803652344
C     -0.1539034437     2.2510471033     3.1989409784
C     -1.5160872466     2.5168362012     3.104379834
C     2.5637188833     1.6812852616     3.1742456557
C     1.6788446786     0.6368411382     3.5545562141
C     0.2674403632     0.911132308     3.5627036937
C     -0.7010226037     -0.1781710218     3.550312813
C     2.1515410306     -0.7296005923     3.4916919053
C     1.1795439581     -1.810174904     3.375584425
C     1.634807247     -3.0394195717     2.849246833
C     -4.3157267517     -2.3435558838     0.8033617932
C     -5.0891547332     -0.1353789307     0.0978348283
C     -4.7759262379     -1.1041594066     1.1275155016
C     -0.6254931882     -3.7169384272     2.118923822
C     -2.5414231974     -2.1902179961     2.5463545064
C     -3.2753966259     -2.9546968749     1.5897875705
C     0.7541059627     -3.943035091     2.1793938726
C     -4.1487199127     -2.7165965571     -0.5748865186
C     -4.199865542     -1.7023995664     -1.5841667417
C     -4.6235778849     -0.3481130172     -1.228379675
C     -4.0706284341     0.8035169836     -1.9464924704
C     -4.1880583014     2.0775730671     -1.3488103039
C     -3.3134254417     -1.8562574231     -2.6734636435
C     -3.1687944519     -3.7510277706     -0.5994601162
C     -1.0266337856     -4.4922929579     -1.4623076067
C     -2.2948515731     -3.9091390047     -1.7072052072
C     -2.3836210401     -2.9481032763     -2.747673053
C     -1.340223762     -4.3372656335     0.9995903813
C     -2.6539703977     -3.9113630463     0.7469402837
C     -0.6098045272     -4.8343712941     -0.1146339366
C     -2.6901862889     -0.7126043822     -3.2796611394
C     -2.9853482181     0.6024673062     -2.9108670018
C     -1.9544532298     1.6011933288     -3.1360322368
C     -2.1406602839     2.8879318043     -2.5009462686
C     -3.2119457391     3.094623724     -1.5935935923
C     -1.0387656584     3.7394921249     -2.341404346
C     -1.3754412934     -1.0950276948     -3.7037850714
C     1.0466326754     -0.7212229688     -3.5841716807
C     -0.3083794577     -0.1930037424     -3.7567398146
C     -0.6180912898     1.2126385619     -3.567342108
C     3.3640852686     -0.2541307555     -2.9581666534
C     2.1295045935     0.217770161     -3.4619734396
C     1.8640396527     1.6509206243     -3.4046220225
C     0.4872119037     2.1404868649     -3.4387776236
C     0.2298182404     3.418967499     -2.8913785697
C     0.1369529458     -4.094592571     -2.18638865
C     0.0878990715     -2.9779677781     -3.0641081162
C     -1.1902441705     -2.4774791321     -3.3870966134
C     2.4452274425     -2.4753285217     -2.4430629298
C     1.2353708524     -2.0960026676     -3.1625073653
C     3.4857441253     -1.552525481     -2.3858652307
C     1.2099460313     4.1052137241     -2.0925767552
C     2.4874193305     3.6435326296     -2.050098544
C     2.8513954602     2.4758870728     -2.8077085155
C     4.8519230409     -0.1320966842     -1.1412792774
C     4.2777433701     0.6002618333     -2.2480044577
C     4.0058145588     1.9361218209     -2.143712437
C     4.90916494     -0.361496658     1.2524738816
C     5.0192573105     0.4972534508     0.1286312974
C     1.2918670066     -4.3316188961     -1.3510770281
C     3.2732189862     -3.4021132918     -0.224557447
C     2.4337968625     -3.5334927668     -1.4245085
C     4.5827134602     -1.7456266297     1.1177142227
C     4.2503179405     -2.3206968164     -0.1410937923
C     4.4120062218     -1.4783701001     -1.2627750353
C     3.8121058373     -2.1231323165     2.2866307243
C     2.9246093749     -3.1528588293     2.216190739
C     2.762909818     -3.9145056527     0.992046772
C     1.4794768956     -4.5226507544     1.0673998302
C     0.8074415943     -4.8453228869     -0.0957982809
C     3.8384626848     1.4063542359     2.5756605631
C     4.2698728338     0.1091873581     2.4723073501
C     3.4793610282     -0.9491194714     3.0359811839
C     4.2084848867     2.6326593244     -0.8779649876
C     4.6360584959     1.9124302913     0.2702319213
C     4.0727214659     2.3469440648     1.5028802226


