100

 C     -3.8324954966     -1.4192464527     2.2667844957
C     -3.9903552537     -0.0232681609     2.387384275
C     -4.8122345599     0.6122181759     1.413343014
C     -4.6580461632     2.0058515055     1.1201688959
C     -3.7783966655     2.7665436818     1.8581816768
C     -2.6649520715     -2.0868597355     2.7690647769
C     -1.5561731775     -1.3801873209     3.2795056263
C     -1.6804023382     0.0656471784     3.4312996583
C     -2.9265916016     0.7249360603     3.0465460319
C     -2.9141959305     2.1224269371     2.83422463
C     0.8051828867     0.1742885787     3.6994915881
C     -0.4830913953     0.8427375684     3.593624781
C     -0.4995384697     2.261794423     3.2774127999
C     -1.7032047801     2.8554352869     2.882617026
C     1.9602957422     0.9725316138     3.6180174596
C     4.388511457     -1.2458291802     1.9531183661
C     -0.2479953809     -2.0412775279     3.2510489887
C     3.239929211     0.4448652988     3.1976337209
C     2.2514824158     -1.8010220149     3.1518393491
C     0.9386001797     -1.2657562123     3.4906101863
C     3.3946245436     -0.9191273193     2.9271894673
C     -3.9202280357     3.0963557046     -0.9556207604
C     -3.0803855027     3.9739139064     -0.169407142
C     -4.7317031775     2.1739480458     -0.3257945943
C     -3.0144506176     3.8137051487     1.2170112924
C     -1.7450629134     3.8960234283     1.8648225897
C     -1.871148835     4.1967718918     -0.9021495393
C     -0.6321470993     4.382319619     -0.2762529896
C     -0.5759244396     4.249766084     1.1750185133
C     1.9178491688     2.3538891171     3.2219703783
C     0.70446697     2.9712338925     2.9122185437
C     0.6748977175     3.9343520589     1.8186600776
C     1.8420981695     4.1258386246     1.0636045802
C     -4.0794989167     -0.9011305691     -2.291250124
C     -4.2494077724     0.4886081805     -2.0869166296
C     -4.9407354936     0.878556882     -0.9062247529
C     -3.178850293     2.7099651259     -2.142762722
C     -3.2678015905     1.3950373699     -2.6773577677
C     -0.9421324819     1.7083320023     -3.5051686024
C     -2.1097752276     0.8702387918     -3.3671561874
C     -1.945807114     -0.5761838438     -3.5042602896
C     -2.9532564213     -1.4083387988     -3.0129237807
C     0.2449152393     1.1210741247     -3.9692026591
C     -1.9491537695     3.4301375407     -2.126577732
C     1.7843517833     4.1912987567     -0.3835034553
C     0.5653072421     4.1467320501     -1.066926508
C     0.4983424035     3.4230128394     -2.3336406745
C     -0.7990995099     2.9526270849     -2.778822826
C     1.6896317722     2.7989149526     -2.8491017294
C     1.5112863404     1.6913854197     -3.7248397
C     -5.1000720675     -0.0627170873     0.1726282474
C     -4.4138912121     -1.8678411048     -1.2945643625
C     -4.8178790428     -1.4445611881     0.0015094541
C     -3.5445431104     -3.0101772731     -1.4601589361
C     -3.109313415     -3.7632305505     -0.3311011086
C     -1.8689750636     -4.4345132097     -0.4499627501
C     -2.6467856694     -2.7317063254     -2.5276977656
C     0.4001070495     -0.3174396866     -4.0571399502
C     -0.6239228124     -1.1762197368     -3.6998561376
C     -0.2528243996     -2.470550364     -3.1390053459
C     -1.3223301729     -3.2552746998     -2.5595732956
C     -1.0063661656     -4.2309365703     -1.5973206756
C     -4.3035447338     -2.1420731712     1.131017049
C     -3.4764715941     -3.3097265166     0.9689473963
C     0.3046449908     -4.8083105449     0.1952819254
C     -1.0307825789     -4.6495227429     0.684928844
C     -1.264123706     -3.9322397239     1.8964345783
C     -2.5157351223     -3.3109741231     2.0228450377
C     1.3605563913     -4.5090466236     1.0015710603
C     0.3483107476     -4.4504955251     -1.2031575071
C     1.4268365666     -3.7180434841     -1.7399988692
C     1.1293406875     -2.7342194122     -2.7789788959
C     1.1412643535     -3.8126848956     2.266109118
C     -0.1406709548     -3.3543023963     2.6243493405
C     2.3064596001     -3.0675523431     2.5394502123
C     3.2609422863     -3.3357134638     1.467508624
C     4.5146364455     -2.1407186448     -0.2223273143
C     4.2338341435     -2.439589706     1.1553438355
C     2.4758427276     0.6095789894     -3.7734856074
C     1.7730164571     -0.6414112876     -3.8652334062
C     2.1660381704     -1.7831371487     -3.1339943497
C     3.6432765019     0.6796149157     -3.0734378302
C     4.1716732278     -0.500986985     -2.4433242061
C     3.431488308     -1.7151139064     -2.3955600347
C     3.6427194964     -2.5891353531     -1.255283735
C     2.6380363531     -3.5893627153     -0.9271865882
C     2.5789144609     -4.0429922161     0.4222056003
C     2.98042018     3.5850943446     -0.9025295219
C     2.9537911381     2.882492121     -2.1260940149
C     3.9271884011     1.8478502795     -2.2620425789
C     3.1205252302     2.6406730014     2.4973036853
C     3.0759598308     3.4946629203     1.4104210097
C     4.6047823864     1.9990035781     0.124787805
C     3.792386972     3.1555839001     0.1984532873
C     4.7234369846     1.4131893038     -1.1699445462
C     5.0785013613     -0.8213515651     -0.216560605
C     4.9744894921     -0.2520651541     1.122780677
C     4.7052458709     1.1298873978     1.3081173588
C     3.9352358983     1.452377156     2.4559709406
C     4.9313983626     -0.0232782781     -1.3220767711


