100

 C     -5.0346314427     -1.0589067665     0.4134340056
C     -5.2395631629     0.2806711609     -0.0418471029
C     -3.4894921873     -3.3276510355     1.2962114019
C     -3.7803496087     -2.3106581767     2.167335403
C     -4.6269942129     -1.2052363563     1.7663277999
C     -2.2158152325     -3.962395152     1.3711820372
C     -4.2362324923     -0.0761324692     2.5471039408
C     -4.3999518605     1.254866667     2.0724646679
C     -4.954783865     1.4116987015     0.7675962451
C     -3.4785651949     2.2243934705     2.5431130661
C     -3.0599043816     -0.4517507166     3.3061729234
C     -0.343745856     -1.3871138377     3.3548889144
C     -0.6560680655     0.0134864878     3.62215298
C     -2.038177496     0.4677972375     3.5851263975
C     -2.3388960551     1.8327732227     3.3085844626
C     3.3971938856     -1.1353368614     2.892599523
C     2.0768603485     -0.8136414449     3.2953815646
C     0.3785002785     1.0076001095     3.5305691582
C     0.4098106133     -4.5109694327     0.5841832168
C     0.2094838085     -3.7725467568     1.7941885059
C     -1.1587739021     -3.4649886525     2.1825614921
C     -1.4243712254     -2.2978268517     3.0066048101
C     -2.7566934625     -1.8237257202     3.0503174198
C     2.6124524145     -3.1442902292     1.6902389503
C     1.3018072344     -2.9871586895     2.3048721791
C     1.0174364492     -1.7797815644     3.0828188564
C     3.6568166854     -2.2793985715     2.060151793
C     -3.084198587     3.3498179932     1.7217919806
C     -3.5630601096     3.4658530857     0.3801209198
C     -4.4861451109     2.4969565653     -0.0929683289
C     -2.678909487     4.0335903542     -0.574149499
C     -1.7400563923     3.6931087194     2.0421726341
C     2.3338466937     2.7809910539     2.475273073
C     1.0029626084     3.1597196302     2.3645289746
C     0.5940752104     3.9550013145     1.2296224708
C     -0.8355747832     4.213552724     1.0704707265
C     -1.3600213257     4.4707554369     -0.2096423527
C     1.7484625623     0.5926682681     3.4713868929
C     0.0415198641     2.3661911794     3.1200316519
C     -1.28950771     2.7493067062     3.0302188721
C     2.7249576606     1.5686747994     3.1533291503
C     -2.5872498533     3.4867429923     -1.8988338924
C     -3.3455956592     2.3788017691     -2.2995554376
C     -4.4160098079     2.0048198947     -1.4294265421
C     -4.9109477517     0.6551470747     -1.4057670158
C     -4.3920096167     -0.2732617425     -2.275183667
C     -1.2407429118     3.655398073     -2.3660874366
C     0.781306786     2.742568863     -3.2283260855
C     -0.6125571826     2.6872032043     -3.1929946562
C     -1.2832135188     1.4330129268     -3.4773151806
C     -2.687432973     1.3418622841     -3.1274087457
C     -3.2688427741     0.0706146362     -3.135518259
C     0.9001392869     4.1682721676     -1.2191934063
C     -0.4998946357     4.3207396414     -1.3512002537
C     4.5899169548     2.0688152907     -0.8175442524
C     3.5492459897     3.0308581821     -0.9690305254
C     2.8297698731     2.9458818827     -2.1745879163
C     1.5356725169     3.5412949621     -2.3116393276
C     1.4949215899     4.0601858266     0.1047110241
C     3.293739605     3.0819152661     1.4614518523
C     2.8563221141     3.5626509696     0.2109867801
C     -3.8967251786     -3.2120393923     -0.1063968226
C     -4.5979491742     -2.0710330271     -0.5618600987
C     -4.2681591567     -1.6479763644     -1.8857103542
C     -3.1369974826     -2.1768628538     -2.5810901259
C     -2.3924844245     -3.2579678577     -2.0977983054
C     -2.8813648557     -3.8396700061     -0.8863546673
C     -0.666186562     -4.662551546     -0.3601239596
C     -1.9409081254     -4.4305407947     0.0305112964
C     1.5683158304     1.5800269805     -3.5379647841
C     0.9773365984     0.3076196877     -3.6431980094
C     -0.4811025452     0.2337627741     -3.6547391051
C     -1.0927870533     -1.0642403466     -3.4885243105
C     -2.4882506326     -1.1075137922     -3.3077355432
C     1.1458807962     -2.1170722362     -3.0507114615
C     -0.300840318     -2.2321140693     -3.1132424911
C     -0.9745315712     -3.3368229506     -2.4481087535
C     -0.1949960897     -4.2236673707     -1.6638736702
C     3.19639041     -0.6524104578     -2.9289784816
C     1.8014276702     -0.852997417     -3.3299511251
C     3.8872531519     -1.6976580203     -2.260227655
C     3.2096774303     -2.8747903504     -1.8932024805
C     1.8908118906     -3.1249189823     -2.3245700139
C     1.1933498801     -4.0876964544     -1.5669159537
C     5.2829860034     -0.1456184492     -0.9547230217
C     4.7036183908     0.9409806492     -1.7006143635
C     3.7120671964     0.6906930845     -2.6948715614
C     2.8737872218     1.7724888488     -2.9937176024
C     4.9053076486     -1.4349812148     -1.2456018567
C     4.3762169069     2.1352962767     1.6036128513
C     5.4727676893     0.2788607211     0.4269011348
C     5.0524533995     1.6642532907     0.4916195701
C     4.6946662836     -2.3803668786     -0.1670167679
C     4.7372777366     -1.9486759258     1.1638995256
C     5.1669975152     -0.5978207709     1.4637912299
C     4.3740018569     -0.1276527391     2.5841761333
C     4.0132857734     1.2097676949     2.6636068753
C     1.5774495226     -4.3301933109     -0.1809418372
C     3.6640870327     -3.2675299289     -0.563269977
C     2.7234281946     -3.7562362672     0.3733477091


