100

 C     -1.7804644456     -4.1100194411     1.3023436615
C     -2.8895754061     -3.3013552835     1.6031215206
C     -3.7978502558     -3.0790003343     0.526406548
C     -4.7092347703     -1.9734763714     0.5342461207
C     -4.6875858353     -1.0840691083     1.5920250305
C     -0.5458920633     -3.9922944704     2.0171352766
C     -0.3535177789     -2.981033672     2.9632903828
C     -1.4707781804     -2.0795393593     3.267944715
C     -2.7490383442     -2.2912764752     2.6401247265
C     -3.6799548918     -1.2128336338     2.628247916
C     0.1551866095     -0.4794018096     4.1528854642
C     -1.1701389642     -0.7620053142     3.7854298305
C     3.3228456329     -2.3605424564     2.3398075253
C     2.1220184531     -3.0809349982     2.3653958925
C     1.0280755525     -2.6001422432     3.2258244786
C     1.2321597755     -1.4224882563     3.95276698
C     -5.0376601809     -0.12932734     -1.0580648765
C     -5.1409792203     0.7974137626     0.065739977
C     -4.8218676823     -1.4733969694     -0.828118077
C     -4.9127727502     0.3290687942     1.3531406293
C     -4.040219264     1.0658827869     2.2175020628
C     -4.5920265295     2.0520133883     -0.3355197109
C     -3.7806981569     2.8301123587     0.5233836264
C     -3.4553576899     2.2827895377     1.842679534
C     -2.0235207761     0.3772874148     3.5231623436
C     -3.3042139593     0.1016002878     3.0139107048
C     0.6849987297     0.829750393     4.0777720019
C     -0.071569089     1.9207497724     3.5988564352
C     -1.4805187427     1.7095339048     3.3475545957
C     -2.2093780929     2.6558576403     2.5143729607
C     -1.4971220547     3.7424451814     1.9963010964
C     -3.2539778124     2.6903128867     -2.2877960903
C     -4.3446693598     0.5235367946     -2.1206965813
C     -4.2289288679     1.9132691927     -1.7403485529
C     -2.6293960906     3.7211474321     -1.5043674887
C     -1.8006360378     4.2821802827     0.6765356888
C     -2.8567478789     3.7737514071     -0.0971116751
C     -2.2781844489     2.1094579721     -3.1778564804
C     -2.2283016788     0.6975789535     -3.3905004555
C     -3.3034059698     -0.1248313852     -2.8487269006
C     -3.0580239463     -1.5342797884     -2.5931476428
C     -3.8803331721     -2.1875978438     -1.6341404112
C     -0.7648426633     -1.3234883565     -3.5695476699
C     -1.7726725783     -2.1287400576     -2.9366786328
C     -1.3851253886     -3.3924412131     -2.2866098363
C     -0.0615443958     -3.8363466541     -2.3824450402
C     0.1958448007     1.0073457698     -3.8107903159
C     -0.9634663165     0.1234780727     -3.721202661
C     1.4732301758     0.4469005844     -3.9599346581
C     1.6715649996     -0.9804752219     -3.9183975528
C     0.5852732185     -1.8487276068     -3.6880040645
C     0.9243621787     -3.0817407546     -3.0830137841
C     -0.5697591824     4.7008371491     0.0851885287
C     -0.2553479808     4.3859575794     -1.2702577357
C     -1.3265794767     3.9129038472     -2.0456139898
C     -1.1097223872     2.899084204     -3.0573753503
C     1.3256631196     2.9864757862     -2.6908705714
C     0.1652067924     2.370399579     -3.3182521187
C     -2.143034467     -3.881385559     -1.1343964472
C     -3.3598767371     -3.261384642     -0.8211915162
C     0.61002641     -4.5133685631     -1.2892840172
C     -0.0686838397     -4.7622685367     -0.1107439805
C     -1.4713420932     -4.4959538407     -0.0477796054
C     1.9619146977     -4.0725932426     -1.2484880063
C     0.532580431     -4.4381744969     1.1388709758
C     1.8307473687     -3.9077962489     1.2080116483
C     2.601586555     -3.7557640973     -0.0304489053
C     4.7655150902     -0.9075521314     -1.2551083997
C     4.0625139287     -2.128913535     -1.3378804318
C     3.7254881289     -2.8242465914     -0.0878164798
C     4.1227352559     -2.2419067955     1.1281909081
C     2.1912212102     -3.2745333771     -2.4406976012
C     2.9741149394     -1.2329870833     -3.4055180064
C     3.2095932937     -2.3171455747     -2.5081603704
C     4.8702804394     1.1287695821     -0.0768211588
C     5.0722478972     -0.3062337048     0.004436526
C     4.771559088     -0.960479617     1.1753434114
C     3.627308353     3.0230987618     0.6972189094
C     4.3205461511     1.8444265934     1.0228033535
C     3.5962498928     0.0491129519     -3.1952361714
C     3.2979407735     3.3575083067     -0.6574875039
C     3.5998810193     2.48709747     -1.7245461028
C     4.5116103469     1.4383988596     -1.4214554845
C     4.4836297769     0.1950638051     -2.1615098667
C     0.4454875292     4.5882541417     1.092105523
C     1.7492066081     4.371660606     0.7272313003
C     2.1026178063     4.1455763594     -0.6596645288
C     1.1045776482     3.9856050132     -1.6357721136
C     2.5896908523     2.3060764787     -2.7626235308
C     2.6459243285     1.09718693     -3.5104949449
C     2.0894767634     2.8434232827     2.6498589509
C     0.6651811447     2.9999667713     2.9797684665
C     -0.0967884468     3.9273858526     2.2419626123
C     2.5974612082     3.5673765645     1.5540224921
C     4.2809790995     -0.2257297383     2.3297067788
C     3.4827477047     -1.1422500325     3.0803437599
C     2.4399283205     -0.6696111186     3.8562963835
C     3.9524469584     1.145261585     2.2530248087
C     2.8129688057     1.638172724     3.0447715623
C     2.1185704776     0.7250995892     3.8528194726


