100

 C     -0.6938419842     -3.9239400122     -2.3039804314
C     -1.4488828931     -4.0298194159     -1.1159392939
C     -1.4446141802     -3.8637236229     1.3866318356
C     -2.8067057863     -3.4958284343     1.2971868887
C     -3.4058582067     -2.5866382973     2.2344991522
C     -2.682077308     -2.1274344368     3.3047402106
C     0.7089832986     -3.9220272795     -2.3015719622
C     1.4602232602     -4.0258499201     -1.1109433691
C     0.72847471     -4.1465671662     0.1437693106
C     -0.7211270404     -4.1485749014     0.1412814585
C     2.8082880548     -3.4881672673     1.3068301746
C     1.446903437     -3.8597621688     1.3915949559
C     0.7223936297     -3.4906643779     2.6017616341
C     -0.7252694541     -3.4926291415     2.599269678
C     -1.3960988058     -2.6733964145     3.558715578
C     3.4799092162     -3.2597533594     0.0506411365
C     2.8294812974     -3.5055310877     -1.1592582519
C     3.2554523025     -2.7039935052     -2.2812593912
C     -2.6421216166     3.5886037639     1.3514884167
C     -3.3485401266     2.4268371533     1.7215178457
C     -4.285077507     -1.6937947201     1.537433482
C     -2.6822812862     -0.7077515562     3.6392743388
C     -3.3825467154     0.228585901     2.8653959721
C     -4.3011638336     -0.2961563124     1.8400386172
C     -2.8082699076     1.5573315042     2.7512060383
C     0.6702002891     -1.6542134176     4.2855058817
C     -0.6838729399     -1.6560595498     4.2831825513
C     -1.4114568478     -0.4087788674     4.2031875285
C     1.3946502153     -0.4049520795     4.2080048304
C     0.7261927686     0.8149596694     3.9601296999
C     -0.7454809967     0.8129513979     3.9575993649
C     -1.4847160744     1.8435598481     3.2765937745
C     -0.741812382     3.0162239511     2.8238512155
C     -1.4067252493     3.9398225094     1.9780378223
C     1.3876853668     -2.6696019968     3.5634977509
C     -4.6921116792     0.5547788911     0.7871366861
C     -4.2283379023     1.9146900059     0.7454408472
C     -1.4217427991     4.8170683086     -0.1890033177
C     -2.6284210376     4.0754974356     -0.0100838407
C     -3.1526878472     3.2624359926     -1.0413751001
C     -4.0828907195     2.2882275821     -0.6279163697
C     -0.7245663089     4.705858626     -1.3882493848
C     0.6773419368     4.7996757653     1.0677886353
C     -0.6975690098     4.7978046285     1.0654306299
C     0.7204048698     3.018216129     2.8263589615
C     1.3856987638     3.9436298634     1.9828312079
C     1.4649500027     1.8475878992     3.2816686946
C     -4.8413442789     0.0915672124     -0.5529047446
C     -4.6454999695     -1.2710067713     -0.8733500192
C     -4.4027657705     -2.1729533565     0.1944772948
C     -4.0628409577     -1.56891529     -2.1279492566
C     -4.3458989728     1.140077421     -1.4196963881
C     -1.1669351424     3.7410732978     -2.3769002824
C     -2.3486728229     3.0027724068     -2.2366997997
C     -2.4390891328     1.7183053408     -2.9190086764
C     -3.5556393371     0.8468866217     -2.5707482573
C     -3.5223428387     -0.5031292523     -2.9690294063
C     -2.3288368908     -2.4160475434     -3.3534796964
C     -3.2436810596     -2.7128565684     -2.2924208164
C     -2.8193809429     -3.5132367305     -1.1689600792
C     -3.4746263103     -3.2692355325     0.0386961892
C     -1.1238234301     -3.041493127     -3.3962750915
C     1.1403029112     -3.0383993363     -3.3923825724
C     0.0082469445     -2.3645866768     -3.934746575
C     2.3434539548     -2.4096737924     -3.3454546287
C     -0.0009211703     3.162653097     -2.9842055398
C     0.0017445896     1.8612614173     -3.5010539199
C     -1.2719454718     1.157357917     -3.5704183501
C     -1.2561615397     -0.2444346224     -3.9440138867
C     -2.4193430633     -1.0173834764     -3.6958955935
C     1.2775770435     1.1608459     -3.5660579078
C     1.2668865124     -0.2409978911     -3.939653075
C     0.0066273717     -0.9438885337     -4.1190445031
C     2.4313184884     -1.0107676027     -3.6875604749
C     1.1614158531     3.7442545609     -2.3729120252
C     2.3446726272     3.0091721987     -2.2286424023
C     2.440934449     1.724961587     -2.9106250357
C     4.3441561037     1.1519301461     -1.4047736498
C     3.5586551506     0.8565877752     -2.5585291704
C     3.5304148902     -0.4935102249     -2.9569218868
C     2.6138418327     4.0826457084     -0.0010859128
C     1.4057697191     4.8209237194     -0.1841495405
C     0.7130210239     4.7078156887     -1.3857791133
C     4.0752945493     2.2993546144     -0.6139067636
C     3.1438636951     3.2710241786     -1.030562736
C     2.6682152185     -0.7004539703     3.6484586208
C     3.3685751546     0.2377934128     2.8769847567
C     2.791076091     1.5649714713     2.7608251768
C     4.2170419857     1.9262064629     0.7599440476
C     3.332502158     2.4359482101     1.7329875104
C     2.6241919648     3.595783471     1.3605265473
C     4.2809088415     -1.6821143848     1.5521448921
C     3.4017407146     -2.5773568651     2.2461914365
C     2.673035088     -2.1201309545     3.3139356519
C     4.6843805211     0.5675668291     0.8032390176
C     4.2921381386     -0.2844370231     1.8547922952
C     4.0709213588     -1.557822917     -2.1139824668
C     4.8394795636     0.1047707702     -0.5362796451
C     4.6484524176     -1.258331398     -0.8573886724
C     4.4045172016     -2.1609451119     0.2096030308


