100

 C     -4.5237269889     -0.7438794565     0.1833451529
C     -4.525233697     0.7330879906     0.1878949971
C     -4.4280887357     -1.412237364     -1.0482440057
C     -4.4309998644     1.4092382875     -1.0395443209
C     -3.441389024     2.7917867309     1.2373708003
C     -4.1012065514     1.4771145366     1.3659795189
C     -3.8733776281     0.7169394724     2.525219281
C     -2.581729503     3.2039818796     2.2721390854
C     -2.2557295699     2.328552828     3.3515252234
C     -2.9044635561     1.130697185     3.4946587919
C     -3.770449453     2.6979616691     -1.1707677212
C     -2.0665252742     4.2707135176     -0.329148854
C     -3.2133157904     3.3837993017     -0.0813978628
C     0.2183282468     4.8773612534     0.4934803927
C     -1.1484159586     4.5789614918     0.762611381
C     -1.4076917623     4.0127264967     2.0203717241
C     -1.5266968377     4.3170773873     -1.6419500289
C     -3.8718728172     -0.7408088921     2.5207283435
C     -4.0981484543     -1.494287831     1.3568235675
C     -3.4355795599     -2.8067565082     1.2201068374
C     -2.9020894776     -1.158538551     3.48759777
C     -2.2508810166     -2.3541488258     3.3370927606
C     -2.5750682424     -3.2235626865     2.252318628
C     -2.1759030934     -0.0146287249     3.9644321901
C     -3.2062890388     -3.3901359362     -0.1022874296
C     -3.764852531     -2.6987459952     -1.1874033562
C     -1.3993638925     -4.0283173692     1.99557463
C     -1.1389260581     -4.5862367612     0.7343423849
C     -2.0576729279     -4.2731355351     -0.3555023441
C     0.2284311426     -4.8801481419     0.4633783587
C     -0.33678664     -3.5269329134     2.8188694677
C     1.8864682097     -2.4525458226     2.7531634125
C     1.0114911109     -3.5711534579     2.4196266895
C     1.281263672     -4.3942095989     1.2957130651
C     3.8856363672     -1.1711054696     2.156470144
C     3.1545090982     -2.3587296111     2.0425332847
C     -0.8429679148     2.4063957893     3.6062861158
C     -0.0658226559     1.2559383316     3.8324214373
C     -0.7610573697     -0.0134108989     4.0441597172
C     -0.0631969777     -1.2799854842     3.8245785578
C     -0.8379564792     -2.4306354955     3.5913605703
C     1.33004257     1.2682286943     3.415239506
C     2.0253996001     -0.0083058711     3.3228997661
C     1.3326895576     -1.2868202279     3.4073426398
C     3.3174770097     -0.0052667074     2.7708888171
C     0.7338224742     -4.8359402612     -0.8884512914
C     -0.1039185356     -4.4798070306     -1.9084806084
C     -1.51776816     -4.3102838456     -1.668562118
C     -1.97725193     -3.4125548731     -2.6729426432
C     -3.1140567327     -2.6852749473     -2.469076099
C     2.077168254     -4.3358764441     -0.8860462106
C     2.5197672032     -3.4189497973     -1.8849103183
C     3.6398703286     -2.6677876853     -1.5504732424
C     3.3988644652     -3.1792069935     0.8526601217
C     2.4399595455     -4.1338829206     0.4735824327
C     4.1623720339     -2.6358161834     -0.215443223
C     -4.1903539755     0.6883255999     -2.253523074
C     -4.188932915     -0.6833446137     -2.2577502848
C     -3.2224909074     -1.3810490447     -3.0528536354
C     -0.8372517648     -2.8031601553     -3.3403411024
C     -0.8153151294     -1.4265618878     -3.661966607
C     -2.091033357     -0.7136429189     -3.5894499401
C     -0.8182869791     1.4471689236     -3.6530982417
C     -2.092526472     0.731177326     -3.5849869949
C     -3.2253607579     1.3929189895     -3.0443005082
C     -0.8430681044     2.8217069606     -3.3229910489
C     -1.9843255641     3.4246152423     -2.6518529693
C     -3.1196260987     2.6937433337     -2.4524892282
C     1.5622578449     -2.8520683651     -2.8295488828
C     0.3180943275     -3.4916989885     -2.9027875148
C     1.6490785842     1.4723608083     -3.2206197305
C     3.8928294099     -1.3850845597     -2.1731696502
C     2.8698755466     -0.7150107428     -2.8973881856
C     1.6520952703     -1.4493146479     -3.2296235203
C     0.4606968766     -0.7247429783     -3.6022339815
C     0.4591743219     0.7476375211     -3.597683202
C     4.7976686589     -0.6817098184     -1.3230925375
C     4.7962390795     0.6995052107     -1.3188279743
C     3.8899458446     1.4062434269     -2.1645589273
C     2.8683786109     0.7385415437     -2.8929137374
C     1.5563446614     2.8724324249     -2.8119021294
C     0.3108565894     3.5099228198     -2.8811955934
C     4.8036271118     0.7235110349     1.1343327903
C     4.8051262262     -0.7208477266     1.1298721875
C     4.886904895     -1.4087646644     -0.0701155878
C     4.8839745977     1.4189910184     -0.0613833846
C     -0.3440769176     3.5084712891     2.8405736476
C     1.0041039659     3.5579444838     2.441628509
C     1.8813944072     2.4391103261     2.7682617065
C     3.3922737279     3.1806150496     0.8722882842
C     3.1496159089     2.352299197     2.0570647047
C     3.883208598     1.1655167952     2.1636787787
C     4.1569044031     2.6454149113     -0.1991384751
C     2.4313907083     4.1356226968     0.4991004058
C     1.2721635967     4.3884720081     1.3228114652
C     -0.113196819     4.4909873489     -1.8807992496
C     3.6343295194     2.6845459227     -1.5339525833
C     2.512679875     3.4354427214     -1.8637633007
C     2.0681834238     4.3452588401     -0.8592557021
C     0.7238089809     4.8425556135     -0.8585908815


