100

 C     -3.711805001     0.5851207356     -3.0888787398
C     -4.3207035766     -0.5056554931     -2.4243917027
C     -5.0183527257     -0.2540742653     -1.196879561
C     -3.7043340994     -1.7828655018     -2.5898043376
C     -2.4837156152     0.4220374168     -3.8031580806
C     -0.3697902052     -0.838530776     -3.9763466324
C     -1.8028614134     -0.822033497     -3.8786803154
C     -2.4775526848     -1.93140245     -3.3103306716
C     1.7288871389     -2.0162059609     -3.4818363993
C     0.3386859375     -2.044670118     -3.540862492
C     -3.7166054972     -2.7507687547     -1.5208972394
C     -4.3249441329     -2.4522161216     -0.2742980308
C     -5.0143811725     -1.206530946     -0.1446312391
C     -3.7119639394     -3.0088388582     0.89077848
C     -2.4913685553     -3.496134713     -1.5880486155
C     -0.3778074848     -4.0413432051     -0.4411476419
C     -1.820658162     -3.9290310478     -0.4315959871
C     -2.4997246071     -3.7313263222     0.8076550403
C     1.7087829589     -3.9568871614     0.836451615
C     0.3234760388     -4.0135568457     0.8394721156
C     -0.347720401     -3.0558366205     -2.7390177154
C     -1.7353095919     -3.0019224094     -2.7029179608
C     2.4742612693     -2.8404147995     -2.566963058
C     1.7923246044     -3.6343424268     -1.59728036
C     0.3539151156     -3.7282790668     -1.6424341847
C     2.4622654884     -3.8263576389     -0.3746975391
C     -3.7156769017     -2.2804976088     2.1543131482
C     -4.318144355     -1.0010799266     2.253835812
C     -5.0083937075     -0.4819591181     1.1180355709
C     -3.6960261596     -0.0619125423     3.1389092497
C     -2.4974685588     -2.5700774414     2.8278676923
C     -0.3713464613     -1.6516943297     3.7011606671
C     -1.8087303435     -1.5985450291     3.608561718
C     -2.4758286058     -0.3708614983     3.8122774964
C     1.7291136189     -0.4239112995     4.0002564934
C     0.3414179606     -0.4312698251     4.0585453422
C     -0.3611399531     -3.5291690221     2.0478181003
C     -1.749299533     -3.4757430474     2.0146653388
C     2.455531179     -3.3306664621     1.8994677274
C     1.787050054     -2.6466979145     2.9392429478
C     0.351618185     -2.7064204218     3.0211966914
C     2.4759462582     -1.5356737085     3.5047085583
C     -3.7093797396     1.3504786603     2.8497452751
C     -4.3210588834     1.8449233393     1.6722580191
C     -5.0198924663     0.9135578866     0.8323678574
C     -3.7080234152     2.9764396226     1.058729213
C     -2.4772631908     1.9079096305     3.338454097
C     -0.3679446502     3.026035979     2.7375922734
C     -1.8044705567     2.9501072062     2.6690966288
C     -2.48399374     3.5117939351     1.5490318393
C     1.7259321989     3.6931489379     1.6433482826
C     0.3367974986     3.7514659674     1.6760861426
C     -0.3417337788     0.8741820537     4.0052916816
C     -1.7270258193     0.8556232914     3.9520921273
C     2.4816491413     0.7824667253     3.7412971385
C     1.805824966     1.993401005     3.412353844
C     0.3614536051     2.0511506008     3.5102924162
C     2.4802284865     2.8762013822     2.5502601599
C     -3.7112532185     3.1238161336     -0.3838805449
C     -4.3168862008     2.1446596964     -1.2166367198
C     -5.0042263645     1.063078091     -0.5978958385
C     -3.6976140454     1.9051591372     -2.4878100039
C     -2.4923017217     3.7604544142     -0.765238474
C     -0.3677279283     3.5191315161     -2.0098966725
C     -1.8125184546     3.4201453367     -1.9569100548
C     -2.4849696555     2.5462435154     -2.848633514
C     1.7230744543     2.7047925931     -2.9841728499
C     0.3367189334     2.7478718876     -3.0207456116
C     -0.3477225932     4.0774299462     0.4296036444
C     -1.7385870331     4.01207121     0.4267107768
C     2.4691685684     3.8133383264     0.4207405232
C     1.7936323618     3.8844139993     -0.8261388702
C     0.3603837061     3.9825848844     -0.8505448886
C     2.4717102585     3.3078609201     -1.9289020449
C     -0.3481631473     1.6469573018     -3.7322899772
C     -1.734985052     1.6308043948     -3.6798387488
C     2.4719715704     1.5714839373     -3.4797308995
C     1.8009911232     0.4037409419     -3.9138994124
C     0.3578517525     0.4106817643     -4.0262977036
C     2.4826190123     -0.8264654259     -3.7359261353
C     3.6858996902     1.5011991354     -2.7434186173
C     4.9910824165     0.1187360016     -1.2043320661
C     4.3047781193     0.2420750756     -2.4449235681
C     3.6991250127     -0.9163301005     -3.0006262791
C     3.6955307832     3.0955786289     0.5789959395
C     5.0079157857     1.1976464951     -0.2503549894
C     4.310688046     2.4231084507     -0.5186449568
C     3.7013059449     2.5852608739     -1.7853871083
C     3.6925614876     0.4092833497     3.1148861136
C     4.9971303127     0.6210137337     1.0506544278
C     4.3091378884     1.247510502     2.1324238565
C     3.7037413074     2.5104577748     1.8983034706
C     3.6791240186     -2.8428893312     1.3455443264
C     4.9956824272     -0.8279845375     0.9054195185
C     4.3012463512     -1.6537935974     1.8429092211
C     3.6978357562     -1.0410780643     2.9684168794
C     3.6952903211     -2.1773119167     -2.2773008333
C     5.0038669856     -1.1324602154     -0.4816489991
C     4.3063858814     -2.2774522321     -0.992614653
C     3.6934431189     -3.1522847288     -0.0621359593


