100

 C     2.8509182352     -3.5937516598     0.9778547921
C     3.2379097043     -2.5403998851     1.8152326407
C     4.3009769226     -1.629382449     1.3478036703
C     4.438677088     -0.303677048     1.9490192981
C     4.9734904469     0.7847576143     1.1722377937
C     3.5651192581     0.0262929699     2.9983957109
C     1.5408828316     -4.1824469884     1.0475688917
C     0.5372327168     -3.7292472252     1.9266257209
C     0.8846112225     -2.6276543714     2.8197425678
C     2.2467460038     -2.1049704418     2.7940057124
C     2.4895376677     -0.8583529059     3.4003841319
C     -1.5793858559     -2.2003348497     3.1424691389
C     -0.1862570665     -1.8321493192     3.383574168
C     0.0961452096     -0.4884075276     3.8386946313
C     1.4278619032     -0.0626224956     3.8841409935
C     -2.569882042     -1.2344148704     3.4107301535
C     -1.9233454277     -3.289228873     2.2373541869
C     -0.8533593383     -4.0117925508     1.5785367992
C     -3.2063860576     -3.2745582291     1.6234671932
C     -1.1278162374     -4.570549798     0.2975687612
C     3.1196414135     1.3730111289     3.2095051045
C     3.5010043923     2.4134566614     2.3114713506
C     4.4409544491     2.0969563132     1.2948860389
C     2.5453391398     3.4175004605     2.030994663
C     1.7962385489     1.3244431778     3.7494723477
C     -2.2295944592     0.1453853935     3.6606132098
C     -0.9157375201     0.5594862811     3.8053976423
C     -0.5691855281     1.9326831929     3.4373176393
C     0.8297582827     2.3038290348     3.433467569
C     1.2550547589     3.3987509563     2.6328981239
C     2.4085157332     3.9623497245     0.6888988276
C     3.2144408848     3.4906270017     -0.384726132
C     4.3413943806     2.695993115     -0.0415754627
C     4.8897498778     1.7693069522     -0.9638513929
C     4.3015211343     1.6059722604     -2.2282679707
C     1.0613807051     4.3036562596     0.4948432227
C     0.4109810108     4.1802437811     -0.7586870762
C     1.1553680614     3.591638439     -1.8400698393
C     2.5625364417     3.2908539307     -1.6723037486
C     3.1315550309     2.344036517     -2.5595698405
C     -0.9636294956     3.0620105832     -2.9252412759
C     0.4023641588     2.8770644799     -2.8571847939
C     -3.1041722218     3.5897491525     0.4501886726
C     -1.7679720152     3.9980733081     0.5093236429
C     -1.0344342898     4.1806718149     -0.7454757272
C     -1.6859667891     3.8162206751     -1.9393260246
C     -3.2282600031     0.9868958477     3.0750294203
C     -2.8688812906     2.2412315162     2.5334423562
C     -1.516222406     2.7194060543     2.6955293337
C     -1.017730984     3.7015590776     1.7301802878
C     0.3353655648     4.0010695753     1.7221062249
C     -3.6639465523     2.7054848187     1.4559736823
C     5.2131828277     -0.6550309765     -0.7744896327
C     4.6412725058     -0.821174     -2.1069703528
C     5.3185802948     0.5965718094     -0.2183361009
C     4.1560268906     0.2752431994     -2.7847348547
C     3.2651852816     -3.623225733     -0.4026232966
C     4.1571474116     -2.7014181792     -0.8762518872
C     3.9025655156     -2.0500972523     -2.1380965865
C     2.866714721     0.181154967     -3.4346660563
C     2.05397229     -0.9786410347     -3.3871860217
C     2.6258800925     -2.161485955     -2.7559516714
C     0.3073799831     -3.131283319     -2.6088790314
C     1.7363238054     -3.2128860749     -2.3107509481
C     2.1542133083     -4.010107453     -1.2118413856
C     -0.5466482807     -4.0140449734     -1.9060239737
C     -0.098957454     -4.6617032681     -0.6854474578
C     1.1986367135     -4.5657052645     -0.3033679696
C     0.9197425212     1.6570893369     -3.4488064556
C     2.285537009     1.4754480252     -3.3685028521
C     -1.7112484235     -1.7139390619     -3.071014393
C     -1.8398296466     2.0294819317     -3.4449486652
C     -1.3672569297     0.7065336434     -3.6375898492
C     0.0628771089     0.498958898     -3.6591831089
C     0.6097110288     -0.8206306737     -3.5241889905
C     -0.2836136293     -1.9329355127     -3.180561717
C     4.787369078     -1.7865540083     0.027883721
C     -3.1443347844     2.2915713327     -2.9384605014
C     -4.0170499781     1.2417149625     -2.712782491
C     -3.5920225096     -0.0978897545     -2.9691130243
C     -2.2636374731     -0.4001378582     -3.3711744417
C     -2.5479464644     -2.6476690672     -2.3233664197
C     -1.9310292903     -3.7683272259     -1.7527601426
C     -4.7042624489     2.2249044388     -0.5661118267
C     -3.7710340942     3.3109128628     -0.7937176475
C     -3.0449861927     3.3741874846     -1.9703304118
C     -4.8532213469     1.2314581389     -1.5199424844
C     -4.2221604798     0.1518562917     2.473700096
C     -4.867281133     0.5272976185     1.27041538
C     -4.642721132     1.8694305175     0.8379255538
C     -4.7606318278     -1.8481193733     0.5574094645
C     -4.1412446659     -2.2055678992     1.8248956846
C     -3.8386600331     -1.217749312     2.7335655228
C     -5.0315139142     -0.1405173842     -1.1151475085
C     -5.1104118754     -0.5067926203     0.2578251879
C     -2.3165919108     -4.2305780531     -0.4203187328
C     -4.3079442098     -0.9519360617     -2.0473669663
C     -3.8054471448     -2.2130212624     -1.7091379227
C     -4.1985419777     -2.7102922573     -0.4320992358
C     -3.3611967362     -3.6646911705     0.2450553732


