100

 C     -4.3439910422     -0.4919350332     -1.9183784333
C     -3.4329150258     -0.7407877589     -2.9842217697
C     -5.0225034092     -0.0725632572     0.8087886381
C     -4.8310868869     -1.3457742661     0.3482497594
C     -4.6186992056     -1.5851760645     -1.0526923788
C     -4.4478220873     0.3209938649     2.0641415404
C     -3.898703029     -2.8212174629     -1.1582220019
C     -2.9889655056     -3.0451594295     -2.222575174
C     -2.777662615     -1.9873885723     -3.1402132316
C     -1.8998937925     -3.9165965729     -1.9766156185
C     -3.5686928328     -3.2624179871     0.1736560175
C     -2.4190630117     -4.0100392184     0.4447783464
C     -1.6936567266     -4.48755648     -0.7064953323
C     0.3110850831     -4.7954036358     0.6007906655
C     -0.2924725618     -4.7929642096     -0.6123887646
C     -2.3706536473     1.5834405618     3.4555672246
C     -2.3781300774     0.1681470787     3.3962101954
C     -3.4643000564     -0.4971369137     2.6970838511
C     -3.2663559588     -1.8534919631     2.2059718895
C     -4.0484532534     -2.2814318159     1.1052114307
C     -0.9951952338     -1.9288798858     3.2755818898
C     -2.0371172721     -2.5796622123     2.4953777537
C     -1.7018527445     -3.7377894589     1.6835735685
C     -0.3882712622     -4.2718057491     1.7775481186
C     -0.5777048154     -3.7012017933     -2.6025597185
C     -0.3137060852     -2.5201978783     -3.3455874309
C     -1.4439989107     -1.7383174239     -3.6812514006
C     -1.3152618883     -0.3550271054     -3.8798599324
C     1.1304858125     -0.500688948     -3.6185616355
C     -0.0678238665     0.285002708     -3.8347790636
C     0.4049013209     -4.2598646663     -1.7860443697
C     1.7164726847     -3.7215253472     -1.6889281148
C     2.0473769158     -2.5574076983     -2.4939269175
C     1.0030151863     -1.9059751926     -3.2703140315
C     4.0576080358     -2.2598272983     -1.1020011539
C     3.273887734     -1.8283666169     -2.2002328539
C     3.4667314804     -0.4684334111     -2.6833977702
C     2.3780689048     0.196870139     -3.3786341236
C     2.3652766873     1.6124491956     -3.4297186071
C     3.5815337251     -3.2480532605     -0.1762040715
C     2.4347053574     -3.9983605224     -0.4517306142
C     1.7111108041     -4.4853303745     0.6967077758
C     -2.5265676698     0.2892678325     -3.4393799625
C     1.1249149175     2.3474452748     -3.411447236
C     -0.1099089957     1.7023199644     -3.5498207471
C     -1.2879038136     2.3343798962     -2.9930659609
C     -2.5321463041     1.5797184115     -2.9115135842
C     -1.1049349169     3.481827983     -2.1396045152
C     -2.1447046234     3.8222959534     -1.2517400114
C     2.6518081165     3.5600247309     -2.1666947086
C     1.2854787709     3.5180608483     -2.61028555
C     0.2160047582     3.9857924341     -1.823291728
C     2.9321531293     3.9733534116     -0.8751831392
C     1.8462633451     4.3475760784     -0.008578727
C     0.5103896174     4.4409613783     -0.4745225489
C     4.3348156832     1.7811479437     -2.0097367896
C     3.333083918     2.4052127084     -2.7223022974
C     4.4471783113     0.3496518692     -2.0456707688
C     -3.3949566395     3.0936583148     -1.199770503
C     -3.585680745     1.9228670828     -1.953547146
C     -4.4620826017     0.877644707     -1.417211422
C     -3.928743679     3.2423873638     0.1252087581
C     -4.6523449029     2.2040109376     0.6853880546
C     -4.9717680391     1.0534336663     -0.1035363256
C     -2.9464274919     3.9571235284     0.9148635304
C     -4.3408319217     1.7530871441     2.0365802389
C     -3.3414344554     2.3767073554     2.7527868845
C     -2.6645043818     3.5372932843     2.2039396326
C     -0.5264545943     4.436118051     0.5169383559
C     -1.8619660196     4.3404566767     0.0504470143
C     -1.2980250487     3.4978342969     2.6472813169
C     -0.2303399051     3.974168468     1.8630250726
C     2.1309449572     3.8228502811     1.2905608273
C     1.092478453     3.4733108479     2.1764001094
C     2.5268234071     1.5720556257     2.937186888
C     1.2797653137     2.3215727831     3.0231497677
C     0.1041729453     1.6818651786     3.5761958108
C     -1.1330540275     2.3231689854     3.4415918949
C     2.5261057618     0.2785219806     3.4574953755
C     4.9684085907     1.071339892     0.1262445295
C     4.6446512951     2.2253251765     -0.655934191
C     3.9171391357     3.2576911328     -0.089713433
C     4.4593783802     0.8859616112     1.4388519904
C     3.579047642     1.9247422576     1.9812680504
C     3.383916221     3.0992136104     1.2343522569
C     4.6252499839     -1.5740910783     1.0599530261
C     4.8367089938     -1.3256995824     -0.3395552669
C     5.023340662     -0.04910268     -0.7926361644
C     3.4363074789     -0.7454543675     2.996355907
C     4.3464281448     -0.4869661538     1.932008425
C     1.9152211403     -3.9210557251     1.9701747304
C     2.7857514058     -1.9953959618     3.1450402165
C     3.0010110725     -3.0469975619     2.2212499664
C     3.9098875952     -2.8134288309     1.1582452389
C     0.067421417     0.2627519421     3.8528693916
C     -1.1279359017     -0.526157245     3.63206393
C     1.3172400645     -0.3728693996     3.8942003498
C     1.4511625428     -1.7544932087     3.6875008462
C     0.3238126779     -2.5386161896     3.3472642107
C     0.5922339001     -3.7142689795     2.597335977


