100

 C     -2.6155534251     2.910521544     -2.0951923762
C     -3.6453926778     1.950388586     -2.1573326722
C     -0.1926733695     4.2597443119     -1.4247927923
C     -0.1820603567     3.39594357     -2.5317063886
C     -1.4082822803     2.6711051066     -2.8685891605
C     -1.3005092969     1.4457134744     -3.6190346672
C     -0.0423800472     1.1094350202     -4.1586265669
C     2.3159058527     3.1393947601     -2.1308880226
C     1.1236177716     2.9281059207     -2.963288285
C     1.1417206199     1.8776558615     -3.8940192869
C     3.4106077705     2.2708328324     -2.2965174692
C     3.371895344     1.1729598311     -3.2230187637
C     2.2547633859     0.9844090955     -4.0115538639
C     2.2020599664     3.8090119128     -0.8517298563
C     3.0281005188     3.3977403679     0.2843273943
C     0.980310227     4.4696459585     -0.6032842126
C     2.5095843362     3.6075150542     1.5855764499
C     -2.2590913327     0.3628294747     -3.4550392905
C     -3.4451437655     0.6730052306     -2.7843276043
C     -4.2020579578     -0.3248363129     -2.0897546864
C     0.3336090845     -0.244277318     -4.3862475064
C     -0.5190707217     -1.318384983     -4.0262681588
C     -1.8600635159     -1.0328590337     -3.5354676934
C     -2.5613989525     -2.025856132     -2.7556981212
C     -3.7304295259     -1.6421959007     -1.9735624909
C     -1.858843295     -3.2544586249     -2.3931875356
C     -2.2176420448     -3.9500765274     -1.2081438261
C     0.1236856552     -2.5197884513     -3.6682563781
C     -0.5309095561     -3.4594754912     -2.8248932484
C     1.5343666815     -2.562928541     -3.3807668822
C     2.3683678555     -1.4477600508     -3.6022110939
C     1.7700557679     -0.3387908854     -4.2514144863
C     -4.9261198504     0.3458790656     -1.0263782749
C     -3.285336354     -3.4690366557     -0.3656340869
C     -4.0609437613     -2.3555849241     -0.7354039153
C     -4.654152079     -1.641402817     0.3418008345
C     -5.1028003378     -0.2855449742     0.1894650677
C     -1.6891347312     -4.4478386792     0.9664637373
C     -2.9238724117     -3.7144080063     0.9920508119
C     -3.1655247534     -2.7297465104     1.9919463285
C     -4.1151599384     -1.759707363     1.6630642519
C     -0.7787651835     -4.2473334639     1.9677879924
C     0.4649434968     -4.0596928047     -1.9807980315
C     0.1563291368     -4.5147680459     -0.6897131784
C     -1.2345206302     -4.5916748838     -0.3865230441
C     -4.4419023461     2.4687640783     0.1063656288
C     -4.4977881391     1.7741127871     1.3821522876
C     -4.5818787204     1.7530258847     -1.0701143679
C     -4.8213778519     0.4282420781     1.4224447037
C     -4.0904201184     -0.4474224715     2.276442869
C     -2.9587176477     -0.0083521232     3.0182946741
C     -2.1272839652     -2.3869391849     2.9563532025
C     -1.0239244737     -3.2531153839     2.9990988922
C     -1.36331923     4.405456035     -0.598773654
C     -2.5726274596     3.7618847536     -0.9133345526
C     -3.4232890015     3.473628314     0.1909079471
C     -2.8746798138     3.4110189922     1.5116693147
C     -1.5863030512     3.8654439732     1.802213071
C     -0.9274511713     4.5597742358     0.7513670903
C     1.2218782162     4.1861591699     1.7975837848
C     0.503292659     4.6642309857     0.7277346688
C     -1.2775577571     1.8521645422     3.3223672677
C     -0.8099198768     3.1534040205     2.8152574002
C     2.1009533046     0.3058211232     3.9810456272
C     1.0777822836     1.2810834475     3.9003773523
C     1.4976452985     2.5271698484     3.3858952863
C     0.5560267357     3.4502684686     2.8601880047
C     -1.9529070544     -0.9923029384     3.3936537248
C     -2.6208208514     1.4074221897     2.9782705031
C     -3.4428932924     2.270862469     2.2003680873
C     0.2359890133     -2.8142551987     3.4691552378
C     0.4188810583     -1.5017053145     3.9429919006
C     -0.670203382     -0.5374238872     3.8458311374
C     -0.3299913475     0.8966506983     3.8145367081
C     1.7714736671     -1.0806199983     3.9880126464
C     3.8103483789     -0.8399523272     2.9527511873
C     3.3735717181     0.4723536301     3.3413209608
C     3.6348080792     1.5996144297     2.5172599374
C     2.7318118399     2.6628071394     2.6487510056
C     4.4764883666     -1.0038579743     1.7598349808
C     1.2671017747     -3.484534612     2.7004720969
C     2.5260094626     -2.9140985716     2.4994739902
C     2.8193954467     -1.8005687666     3.3333168466
C     1.7234168038     -3.4490387701     -2.2783193544
C     2.7006465065     -3.2084103997     -1.2734465796
C     2.4157020385     -3.650327567     0.0822866685
C     1.1433010805     -4.3183443375     0.3674183193
C     0.6408177995     -4.2680967061     1.6905657513
C     4.1718332735     -2.1187472746     0.877564971
C     3.1435893076     -3.0398603871     1.1810403186
C     4.6805977069     0.5319156428     -1.4378939964
C     4.0467993987     0.0445813524     -2.6355188988
C     3.5045248888     -1.256767244     -2.707580566
C     4.9172485465     -0.3251959231     -0.395886939
C     4.4304874543     -1.6904106781     -0.4592427043
C     3.6667225973     -2.1521398185     -1.5466203813
C     4.3413299849     1.4406916242     1.2489160537
C     4.0149128568     2.3368767245     0.1288225621
C     4.2480619694     1.8799520472     -1.1790086
C     4.8251857157     0.1459275745     0.9510769749


