100

 C     2.6425085839     3.1075184796     -2.4899006742
C     3.7989799895     2.470408674     -2.1153576824
C     4.0333399586     1.1193475599     -2.53541464
C     3.9916138055     -1.6338882343     -2.007462012
C     2.9315810206     -1.0884479012     -2.7834660811
C     2.9786916731     0.3372829032     -3.0869168885
C     0.4979694922     -1.1538253257     -3.4105186895
C     0.5252022918     0.2758672496     -3.6242782284
C     1.7538014952     1.0150012236     -3.4614901121
C     1.6572310148     2.4103293184     -3.2493888361
C     -1.9141002199     0.3232266186     -3.6970168899
C     -0.7237777214     1.0282903934     -3.6235661056
C     1.5247602359     -3.0515559468     -2.1180724289
C     1.6847172714     -1.8234021409     -2.8680762667
C     -2.2413976322     -3.4730314211     -2.2727233455
C     -0.9330373939     -3.1055084085     -2.6979446495
C     -0.7729281089     -1.8419745939     -3.402205407
C     -1.9465208263     -1.0926912098     -3.6701331476
C     1.3695339856     4.3422194402     0.7056002916
C     2.3823016878     4.0421755863     -0.2271080653
C     1.9852490387     4.0182128159     -1.5879524393
C     0.5982397447     4.0460122087     -1.9439052826
C     -1.7478346371     3.7447526607     -1.2240872265
C     -0.4241827907     4.3013678659     -1.0068939729
C     0.0205606723     4.5755951217     0.3208638402
C     -3.8817981872     2.9888209862     -0.2323541636
C     -2.6901845633     3.7156847333     -0.1011527971
C     -0.8012500827     2.3926902361     -3.1091499951
C     0.3994157072     3.056022136     -2.9654953123
C     -3.148051622     0.8431182073     -3.1341885622
C     -3.1556307943     2.0531463524     -2.3965479074
C     -1.9527756976     2.8462255335     -2.3291848156
C     -4.1285870304     2.1584272635     -1.3772155699
C     3.5141015952     3.237394507     0.2196358063
C     4.3262302121     2.6377559445     -0.7712676592
C     5.1241634532     1.4850988849     -0.4926327725
C     3.4434285878     2.5809344912     1.5290086339
C     4.2912780241     1.5047381579     1.7929274662
C     5.1908248834     0.9789417368     0.7996743557
C     -0.016472658     3.6396553027     2.4370592888
C     1.3308804094     3.6808093848     1.9983371208
C     2.2237628798     2.6659879809     2.3294437824
C     -1.9030323061     2.4117020105     3.2065118394
C     -0.507032     2.5413825351     3.1825870118
C     1.7241462153     1.4994623807     3.0773116005
C     -2.1739763726     3.9044685439     1.2601469978
C     -0.8287688784     4.2521283443     1.4322909955
C     -2.7493238555     3.1623603481     2.3291799879
C     3.991431262     -2.0078390774     2.3734798971
C     5.3273260805     -0.4426324164     1.0222728982
C     4.5809071328     -0.7617746837     2.2260783575
C     0.3348835663     1.3895924603     3.4062869041
C     2.5463591759     0.3210444368     3.1521085442
C     3.8702294768     0.4020050025     2.646113491
C     2.6972681726     -2.1181929945     2.9705090008
C     -0.3052666459     0.0692308992     3.5503347674
C     1.9248856788     -0.9865018619     3.3221854019
C     4.0420741492     -2.9594511483     1.2778408454
C     4.5622516139     -2.5714756128     0.0544838041
C     5.2731428569     -1.3190860827     -0.0635503994
C     4.9985917424     -0.7964320611     -1.3864136586
C     4.9806585268     0.5590556808     -1.6068788504
C     2.8344340331     -3.723079395     1.2994311781
C     2.1785171436     -4.0889974149     0.0885652784
C     0.866275339     -4.5105408086     0.2349139962
C     -2.5331799478     1.1442542165     3.484487113
C     -1.7604641532     -0.0400554247     3.5197120978
C     0.4712203488     -1.1104470923     3.3919295981
C     -1.5915755522     -2.4129930538     2.7125186207
C     -0.1838336203     -2.367100691     2.9788177747
C     0.6505423995     -3.4104792532     2.4281161514
C     2.0475899281     -3.2691864875     2.4016663535
C     0.1222390503     -4.2794325203     1.4470810441
C     2.5552125827     -3.4454763713     -1.1666889492
C     3.7785466582     -2.7596438392     -1.1646577865
C     0.2073939941     -3.6621267001     -1.9961712269
C     -0.0523584091     -4.4717298705     -0.8602168605
C     -1.3640508884     -4.5522963165     -0.2941752949
C     -4.1820094416     -2.0635067586     1.5082564314
C     -3.3924335638     -3.1266702034     1.0635848573
C     -3.5400038141     -3.4817959116     -0.312159544
C     -2.438486089     -4.1104004056     -1.0067299933
C     -3.8469916452     1.1867203758     2.9320590676
C     -4.4446992405     0.020301949     2.480252175
C     -3.7391208526     -1.2118609715     2.5971570445
C     -2.402565763     -1.2725332524     3.077266666
C     -2.1390163744     -3.3976691706     1.7650694187
C     -1.2527747036     -4.2760434467     1.130930287
C     -5.1773702632     1.1456074396     0.4315393603
C     -4.5443990161     2.3656186121     0.9010635609
C     -3.9550921604     2.4059295025     2.1506067305
C     -5.1745187058     0.0099958674     1.2272607223
C     -3.9662072512     -0.2580112975     -2.7805206948
C     -4.7938927564     -0.229499231     -1.6168425496
C     -4.9373062466     1.0316840324     -0.9894377923
C     -4.192666092     -2.611672881     -1.2280462838
C     -3.3837158102     -2.6093611742     -2.4411454964
C     -3.2470836554     -1.4565122866     -3.1640202421
C     -4.992929623     -1.2879725358     0.6187859361
C     -4.8696591775     -1.4412587099     -0.7902501457


