100

 C     2.4104474956     2.6982531245     2.5378489454
C     3.5635130579     1.9339115956     2.2892537902
C     4.3575178978     2.1104293665     1.1088355878
C     1.9620163861     3.6432050163     1.5131479536
C     2.7338337908     3.7606673387     0.341179326
C     3.9464338614     3.0178197549     0.1433295436
C     -0.2370131172     3.6934523334     2.5382231486
C     0.565413226     4.0249835834     1.4306752296
C     -1.5322405488     4.2059219402     0.0581133373
C     -0.0828661845     4.2716492681     0.1497982704
C     0.6991989101     4.1072324416     -1.0540162412
C     2.087189407     3.8990890694     -0.9323033771
C     -2.1016678986     3.9934913457     -1.2161628671
C     -1.6708010539     3.5778094805     2.4333908804
C     -3.5544754304     3.1167819654     1.0362581737
C     -2.3285508063     3.8195522516     1.2180046596
C     4.9961654821     0.492213449     -0.6100732403
C     4.5236921885     1.4189644286     -1.6244986216
C     4.8911319056     0.8203600237     0.7282195247
C     4.0178779025     2.6536044904     -1.2570772835
C     2.8491801734     3.160718949     -1.9123652765
C     3.8587635206     0.6465306841     -2.6357330555
C     2.6921809435     1.1051368999     -3.2833091485
C     2.1945834549     2.4316543137     -2.9311267534
C     -1.3050959853     3.7307833763     -2.3741526148
C     0.09546001     3.7020744528     -2.3073873707
C     0.8227840221     2.7998514943     -3.2055627402
C     0.0793603195     1.9166932796     -4.0003861352
C     3.6149284788     -2.9385626346     -0.6408469431
C     4.3098847944     -1.8384160902     -0.1041675623
C     4.6872608769     -0.8415466819     -1.0363818519
C     4.0132556555     -0.7414388734     -2.3100002207
C     0.5179063208     0.5616779612     -4.2238733978
C     1.7692137422     0.1003203271     -3.7987524952
C     1.8957369887     -1.3066528978     -3.4793616169
C     3.0699791692     -1.7139418769     -2.7259728378
C     3.0379274328     -2.8919913547     -1.9562859772
C     4.0699612299     -1.4792454596     1.29699713
C     4.3932130788     -0.1602778958     1.6756419015
C     3.6284807948     0.5341233848     2.6614812473
C     2.7953048873     -3.7718263599     0.1630781829
C     2.5000876603     -3.4287735239     1.5197514078
C     3.0728379258     -2.1977449645     2.0782424584
C     2.3645212277     -1.5095686189     3.1373327561
C     2.5999001324     -0.0937426669     3.3744706886
C     1.1155695136     -2.0712370065     3.6285754781
C     0.1711521411     -1.2299001945     4.2535947287
C     1.292607193     -3.9495601897     2.0404439179
C     0.5916821316     -3.2510209223     3.0648867866
C     1.7966468929     -4.367448918     -0.6866074255
C     -0.5817241823     -4.6561840717     -1.0428496782
C     0.5368996573     -4.7574943426     -0.17781461
C     0.3130512574     -4.6014225868     1.2118462675
C     -0.63415135     -0.2783480597     -4.2402885797
C     -0.5807482072     -1.6075246869     -3.8136454651
C     0.7227317123     -2.1648596432     -3.4794022028
C     0.7612939909     -3.4164557365     -2.7360388426
C     1.9067111742     -3.7559441362     -1.9777031098
C     -0.4675120446     -3.9961375063     -2.3104661484
C     0.417814968     0.1572454235     4.4525141797
C     1.5800917572     0.7752465259     3.941101527
C     1.4702291628     2.1577274138     3.4935266333
C     -0.8513015341     0.8230604252     4.4781539744
C     -0.9420196946     2.1282229046     4.0684831818
C     0.2188469036     2.805089598     3.5740558447
C     -3.8874314101     1.9980631305     1.8555347644
C     -2.1037013738     2.554342957     3.3377744535
C     -3.1174726198     1.6269757099     2.9763277099
C     -0.8201848393     -3.4302586531     2.8556114667
C     -1.7531274916     -2.4188487546     3.2108200429
C     -1.2543301305     -1.4124481058     4.0551788963
C     -1.8814812767     -0.1376771086     4.1301881282
C     -3.5078875917     -0.8309833757     2.4146923171
C     -2.96559611     0.2009544361     3.3056340093
C     -3.0951191757     -3.0138237274     1.1913288923
C     -2.8997512866     -2.1408481127     2.3623857692
C     -3.9181855088     -2.548093072     0.1570693786
C     -4.4991616042     -1.2375624491     0.1847215752
C     -4.3352101913     -0.3882361803     1.2973952234
C     -4.5263017653     0.9941693192     1.0361589929
C     -2.6305547613     -3.7274775329     -1.5524279493
C     -1.9064680708     -4.4023751964     -0.5207262024
C     -2.1013161463     -4.0471879455     0.8393152732
C     -0.9852745605     -4.2394605243     1.7026390445
C     -3.6518602063     -2.8662565035     -1.2255322954
C     -2.9830812334     -1.3082219458     -3.0335671472
C     -1.8309878566     -2.1741670412     -3.3083424293
C     -1.7375671718     -3.3975768591     -2.6228353704
C     -3.8773956379     -1.7001592588     -2.0129481782
C     -3.2532080681     2.438518093     -2.5699335462
C     -2.0418926106     2.8218527997     -3.2221282512
C     -1.3546451952     1.9047999583     -3.9856769939
C     -3.7079529401     1.0981739313     -2.5856486611
C     -2.9418895518     0.1116492289     -3.3635398105
C     -1.8136481354     0.5534098827     -4.0695578862
C     -4.6247533621     1.4989384963     -0.2917322075
C     -4.0405266518     2.818662238     -0.2813471339
C     -3.3509005469     3.260682105     -1.379318125
C     -4.5193295415     -0.7257418208     -1.1561005536
C     -4.4677701463     0.6482301     -1.4238361689


