100

 C     -5.0281759576     0.9644973734     0.6723822092
C     -3.7452477523     -0.9063437168     -2.8134046834
C     -4.5449193906     -0.3886327823     -1.7797741727
C     -4.6381933901     1.0311075536     -1.7301397161
C     -4.8215967498     1.7006696679     -0.4567743632
C     -2.8886612688     -0.0722123048     -3.5954264889
C     -2.3056084045     3.6814121675     -1.9350238288
C     -3.9969712602     2.8782618794     -0.4076617319
C     -3.489395202     3.0353290725     -1.73436794
C     -1.727281507     -0.8384989546     -3.9917186029
C     -2.7989379873     1.3077302514     -3.3844232399
C     -3.7917314398     1.859309477     -2.5205497527
C     -1.3411588681     3.1935980372     -2.9072414034
C     -0.4217680158     -0.2930372914     -4.0027288788
C     -1.4842238541     1.9405013028     -3.5223527813
C     -1.5860602678     4.2152455082     -0.8174200873
C     -1.9231274094     3.8638722882     0.5126605676
C     -3.18722569     3.173579304     0.7275909255
C     -3.3778567746     2.3651155779     1.920306572
C     -4.3961697366     1.3656075447     1.9072149852
C     -4.3108888346     0.1857872961     2.7142533873
C     -2.2633548599     2.1994905323     2.8437255243
C     -2.2712854515     1.075003745     3.7002270987
C     -3.2740922534     0.0548705422     3.6182038724
C     0.2038374757     2.3148187016     3.2488678062
C     1.4535603542     2.8335133915     2.910607397
C     0.5154991124     4.1543770155     1.0742181576
C     -0.8206715099     3.7426408003     1.4746941633
C     -0.9812751576     2.8547266544     2.6008286664
C     1.6159561231     3.7694925623     1.8713710345
C     -0.2225113268     4.3468686927     -1.2406497373
C     2.1081701955     4.1136309268     -0.8560255593
C     0.8199655133     4.421903973     -0.3265829384
C     0.428903585     -2.5649914867     -3.5568233075
C     0.7111646638     -1.1979324597     -3.7971973539
C     -0.2713105835     1.1347914004     -3.7650370485
C     2.1779884917     0.7289526641     -3.2432741639
C     1.0239931329     1.6369051459     -3.4075315801
C     1.1108207639     2.9632023142     -2.8146779598
C     -0.0725574528     3.6660877292     -2.5041459927
C     2.2301578451     3.3570317444     -2.0520103853
C     -4.048850049     -2.1710333815     2.0446751755
C     -2.9923929574     -2.3103818767     3.0251432585
C     -4.724219411     -0.9605701981     1.9126716114
C     -2.6259047646     -1.2313354634     3.8044438616
C     -1.2360722812     -0.9982438404     4.0708389973
C     2.1551175309     -2.1254286402     2.9220597176
C     3.4395459176     -1.5638024588     2.7689574061
C     1.121765735     -1.3127011081     3.5449936767
C     -0.2127000535     -1.8465787574     3.6008254718
C     -0.5951301551     -2.9762093497     2.7531292173
C     -1.9688422694     -3.1607003795     2.4760135098
C     0.1944662241     0.9841205306     3.8435828496
C     -1.0410356642     0.4193773102     4.08797378
C     2.6695839103     2.0393075986     3.0284594338
C     2.6122054218     0.6790279352     3.4111257314
C     1.3377251327     0.0962311723     3.7491479777
C     3.6573833373     -0.1494072231     2.9628495075
C     -4.7096638304     -1.1847176692     -0.5624681727
C     -3.9586853022     -2.4360891099     -0.4204539331
C     -5.0862609843     -0.4924115546     0.6170680936
C     -3.6676711423     -2.8985476579     0.8775330124
C     -1.907536298     -3.7400826375     -1.1961922377
C     -3.0949303046     -2.9176302433     -1.4971608182
C     -3.1071971732     -2.2043094578     -2.7074020879
C     -0.9125421161     -3.8557359691     -2.1718899208
C     -0.9024597128     -3.0168686118     -3.3323416132
C     -1.964956215     -2.1776917067     -3.5684122099
C     -2.4053190651     -3.5717395898     1.178851518
C     -0.0994379811     -4.0727189365     0.5757515882
C     -1.4983974687     -3.9469295523     0.1953573373
C     2.2345433905     -4.0822084807     -0.2163236641
C     0.8684790109     -4.2730518112     -0.4770360336
C     0.4640282933     -4.1031497301     -1.8202282397
C     1.7694451046     -3.2391562806     2.0526443935
C     0.3574313423     -3.5443209697     1.8401926848
C     2.6993954172     -3.6668094235     1.0842781681
C     4.2129920762     -2.9117635307     -0.5114803607
C     3.1178491938     -3.5262100745     -1.2010089544
C     2.5741063919     -2.945900953     -2.3788349269
C     1.2866715389     -3.3703603688     -2.7206779492
C     4.7589344464     -1.7494072795     -1.0277202571
C     5.0432960036     -0.841400882     1.2354769508
C     4.3538795431     -2.0028387697     1.7546711994
C     3.9769338733     -3.0332453021     0.9095348939
C     5.2270635487     -0.7125532208     -0.1365575172
C     3.6048586582     2.4980103907     2.068919613
C     4.5192827324     1.5990442023     1.4363417772
C     4.6271312945     0.3111814436     2.0113169852
C     4.0285548178     2.7547724886     -0.7053011893
C     3.1978060174     3.7181647939     -0.0072579584
C     2.9592976482     3.5687272232     1.3371264106
C     4.9934466217     0.5672034406     -0.7680253622
C     4.722644483     1.7283031034     -0.0119409379
C     2.996922452     -1.6140030044     -2.8048489047
C     2.0125533343     -0.6840550897     -3.3968588931
C     4.1347298739     -1.0981427979     -2.1680821241
C     4.3056179398     0.3117808157     -2.0094319179
C     3.3662846869     1.2218483267     -2.5503952529
C     3.3815933548     2.5020287256     -1.944073041


