100

 C     -5.0645710948     0.3865103226     -0.60106997
C     -4.6761176976     1.7613870833     -0.6237866425
C     -2.7345527476     3.799361065     -0.7930336183
C     -2.8675731591     2.9103718961     -1.8948017624
C     -3.9320834303     1.9891435422     -1.8336485162
C     -0.4654280375     3.3762850712     -2.435381447
C     -1.6810756532     2.6166015109     -2.6993930684
C     0.72671789     2.9117058361     -2.9941978769
C     -1.489889157     4.4690958474     -0.5005916504
C     0.967409839     4.5036629589     -0.6483520075
C     -0.342375669     4.2794407168     -1.27633033
C     3.3265943405     3.6806050523     -0.4834449493
C     2.176970776     3.9732373352     -1.2717869312
C     2.0367436345     3.2161529434     -2.4542357573
C     0.9968018513     4.6943618865     0.7582558035
C     -4.6303615729     -0.2254845344     -1.834934456
C     -4.2813919081     -1.602091054     -1.9102915604
C     -4.424903394     -2.3951419607     -0.7375513697
C     -3.2557277807     -1.9716813359     -2.8165877721
C     -3.8817641721     0.7550531569     -2.5555112386
C     -1.6080480655     1.3487443313     -3.3889169129
C     -2.7301122417     0.4148608324     -3.3140103734
C     -2.4907881667     -0.9613864925     -3.5155655212
C     0.80079718     1.642566561     -3.6354165552
C     -0.31582343     0.8157456545     -3.7690905314
C     -2.3695805271     -3.0544237376     -2.5294390174
C     -2.4470884624     -3.7994655471     -1.3356535066
C     -3.5556095564     -3.4792741486     -0.4799580868
C     -3.3879263109     -3.5300752046     0.9611552954
C     -2.2315698993     -3.9944655187     1.4848203589
C     -1.0861046182     -2.7513575061     -3.1138304538
C     0.1229266954     -3.2362491763     -2.5968381137
C     0.081464401     -4.0978225188     -1.42749192
C     -1.2054713715     -4.3199895393     -0.7665397176
C     -1.1823769437     -4.5254460306     0.6368673283
C     2.5217841055     -3.8006081194     -1.2498995734
C     1.3074511698     -4.2918113581     -0.6938587457
C     -0.0538088912     -0.6113397619     -3.8182894008
C     -1.1674592856     -1.468344384     -3.7161108372
C     2.1240159484     1.1252873516     -3.4646434499
C     2.3726042432     -0.2438827509     -3.3332717377
C     1.2447435314     -1.1506933385     -3.5104586658
C     1.3199006924     -2.4873744313     -2.9486613551
C     2.5189658249     -2.8824774551     -2.3411595711
C     -3.7345966015     -0.3177424219     2.7331007469
C     -3.3746669799     -1.6573062971     2.6091430416
C     -4.0424883599     -2.4018266905     1.5748581581
C     -0.231700102     -3.6226274174     2.5632757564
C     -1.5970080249     -3.3043353504     2.6095959888
C     -2.0434482278     -2.0530973082     3.0600474573
C     2.0568403479     -3.0235914123     2.6461212836
C     0.7432226213     -2.728514858     3.0463210603
C     -1.0384198194     -1.049585733     3.451134488
C     1.2709564549     -4.4256890974     0.7527245767
C     0.0177019137     -4.426242715     1.3768047804
C     2.3320859934     -3.9201476871     1.5459635713
C     -4.7506091832     -1.7410648282     0.5461252255
C     -4.6226647427     0.3245341395     1.8105042635
C     -5.0386490585     -0.3479111721     0.6230142425
C     -4.2735908731     1.7143058855     1.7862974361
C     -4.3085417324     2.4412731915     0.5716369829
C     -3.3924039442     3.5208295954     0.4416788265
C     -3.1858178214     1.919890331     2.7138740516
C     -2.2498310043     2.9648726626     2.5669382109
C     -2.4948876674     3.8870169447     1.5156544431
C     -0.1810064992     4.5882189843     1.54583859
C     -1.4110597638     4.5938295414     0.9313334822
C     0.3673349785     -1.3783322775     3.4200870852
C     -1.4235049182     0.3383865177     3.4952514566
C     -2.7880731034     0.6624325139     3.221419036
C     0.0790566573     3.6609885063     2.6303588784
C     -0.8868538939     2.7302630987     3.0362341207
C     1.3856535914     -0.3355388941     3.3712931356
C     0.979874196     1.053284718     3.3590509402
C     -0.4332511644     1.3920750439     3.4188543833
C     4.0900833537     -2.4183396543     1.749106312
C     3.0792186933     -2.0407094625     2.7144129732
C     2.7657331239     -0.6888187217     3.0074559957
C     4.8489138967     -1.4473969698     1.1534000963
C     4.7209823782     -0.0892740326     1.5945657125
C     3.6842081378     0.3191006726     2.4873722807
C     3.2672592452     1.6999085032     2.4504836031
C     1.9527289025     2.0693901316     2.9596365001
C     1.4714430971     3.3505551473     2.618895848
C     4.399951827     -2.4103538229     -1.0624915281
C     3.6684644267     -3.4888789083     -0.4289766939
C     3.5649072799     -3.5197196562     0.9611728369
C     5.0444874929     -1.45094931     -0.2942880732
C     4.3657014488     0.3474241712     -1.8727733778
C     3.5769482634     -0.6464219545     -2.6068304041
C     3.6587041395     -1.9923773001     -2.2144711001
C     5.0791470601     -0.0946969656     -0.7295583123
C     4.6745358766     2.0293182837     0.4290046521
C     4.2163593007     2.614279291     -0.815058651
C     3.9804000026     1.757976614     -1.9265753356
C     2.8982493255     2.1231667445     -2.7579230057
C     5.0830987023     0.730171522     0.4716406415
C     2.0632368299     4.1206629641     1.5518064146
C     3.8962876299     2.5607104485     1.5070517042
C     3.2109374174     3.6922896993     0.9600113953


