100

 C     1.6686928955     3.9267782319     1.699472813
C     2.943854858     3.5314828491     1.2919278553
C     -1.1353439144     4.2162466216     1.9495242332
C     -0.5150161058     4.7367288865     0.8446720058
C     0.909260533     4.6386206248     0.735346168
C     -2.462282144     3.7057181673     1.839357225
C     -1.1095087475     4.5645612343     -0.4561288362
C     -2.3611855412     3.9338888858     -0.6169233535
C     -3.1088626642     3.5482020377     0.5851564586
C     -4.4506500231     1.9960656122     -0.7790231974
C     -4.1437434057     2.5196059591     0.4981118616
C     -4.3829482     1.6604754423     1.618728001
C     1.2191168259     4.512791646     -0.6535081346
C     2.4093739897     3.9003389309     -1.0898896636
C     3.3688299913     3.6310856506     -0.0762638446
C     4.4056477085     2.6663186492     -0.270374784
C     4.4604201102     1.9560969789     -1.4616219874
C     -0.0174583243     4.3766409597     -1.3738270031
C     -0.1240880647     3.4893163964     -2.4668706671
C     1.076005278     2.7704480535     -2.8912194167
C     2.3529546296     3.0467271961     -2.2648519583
C     3.3990037751     2.1043592985     -2.4317511953
C     -0.3725404762     1.1233196351     -3.9521691012
C     0.9181408264     1.5073109912     -3.5812917429
C     -3.6965585239     2.3674694555     -1.9401957344
C     -2.5777696562     3.2406467136     -1.8699235925
C     -1.4547326672     3.0015474377     -2.7722570867
C     -1.5269272022     1.8823973648     -3.6371157519
C     5.0148521728     0.6598504553     1.0009174063
C     5.2131403472     -0.0572121574     -0.2575429592
C     4.6180095174     1.9763800182     0.9904129153
C     4.8683572518     0.5655087473     -1.4480800257
C     4.0502018301     -0.1480054422     -2.3879562941
C     4.8651336461     -1.4253936732     -0.045936481
C     4.1223151254     -2.1755778728     -0.9847044496
C     3.6445913497     -1.4781234268     -2.1840653193
C     1.9143018773     0.4533181087     -3.5039763958
C     3.1698036155     0.8112453394     -3.0118710894
C     -0.7492600864     -0.2769831852     -4.0368323308
C     0.1442801688     -1.2999224298     -3.6920971656
C     1.5362768407     -0.9504237718     -3.4809556308
C     2.4083380782     -1.8958140978     -2.8317222593
C     1.8543730398     -3.1374376702     -2.4440742344
C     3.7561224556     -2.5527584344     1.8224886847
C     4.4537621603     -0.2439680594     1.9555216715
C     4.5575463561     -1.5517103163     1.3752111277
C     3.2874629592     -3.5638367875     0.9181350919
C     2.3503261408     -3.864031297     -1.2921731922
C     3.3904607776     -3.3441190739     -0.4934652659
C     2.7203118944     -2.2695645243     2.7900293728
C     2.3816716783     -0.9367166857     3.1407169879
C     3.3158169803     0.1127964964     2.7494586474
C     2.8698929606     1.4873118527     2.7104153159
C     3.59704398     2.4092398042     1.9040354285
C     0.5789094135     0.7642044148     3.4837384833
C     1.5028014585     1.8170568992     3.0924497394
C     0.9874685861     3.1216279715     2.7115205499
C     -0.3775020738     3.3778207607     2.8871427452
C     1.7368942489     -3.2672489108     2.6267463441
C     -0.551671663     -3.893694005     2.3617644577
C     0.3884068021     -3.0180051202     2.9564721557
C     -0.0144887527     -1.6840318197     3.376846958
C     0.9914955168     -0.6325183565     3.4437319363
C     -1.4368500541     -1.3630266175     3.3420535787
C     -0.832073353     1.0589052242     3.6088646856
C     -1.2558282427     2.3918179477     3.3806046112
C     1.253789784     -4.5920139059     -0.7328620443
C     1.0959225252     -4.6802913137     0.6807579394
C     2.099742231     -4.0968714737     1.4880769058
C     -0.2127411155     -4.6889228687     1.2025124526
C     -1.9274764056     -3.5465856828     2.2868447681
C     -2.395046548     -2.3067483465     2.7732841276
C     -1.8406745608     0.003608995     3.5201108985
C     -3.1802422986     0.3682673433     3.1840022259
C     -3.5058354485     1.7061586968     2.7576236759
C     -2.5761566541     2.6905725721     2.8536475459
C     -2.4493687959     -4.125914462     1.0813077176
C     -3.4816367364     -3.5120266039     0.405216696
C     -4.1723362799     -2.430746333     1.0249862589
C     -3.654421772     -1.83438247     2.204185482
C     -4.0221906982     -0.491148161     2.4380410094
C     0.1006482643     -4.3500713609     -1.5556073058
C     -1.2145513073     -4.361485228     -1.0489477712
C     -1.3567445145     -4.674100719     0.3379333789
C     -2.1449408902     -0.3848776432     -3.8132255691
C     -2.703158139     -1.4755220643     -3.1041072339
C     -1.8357103537     -2.5905243819     -2.7847965252
C     -0.437722109     -2.5173333651     -3.1530695034
C     0.4770899598     -3.443998699     -2.6002762356
C     -3.4103465395     -3.2658950632     -1.0120914674
C     -2.2254027703     -3.5215633402     -1.7165543107
C     -4.3944920993     0.130882163     -2.1776298577
C     -3.7107464809     1.2308687063     -2.8152072221
C     -2.6316007893     0.9676900413     -3.616479352
C     -4.2200176633     -2.0926477537     -1.267022406
C     -3.9162053811     -1.2077148195     -2.3201332474
C     -4.7523135742     0.292466704     1.4588113852
C     -4.7485101616     -1.6177045584     -0.0273025179
C     -5.0266428704     -0.2447815741     0.174928887
C     -4.9054305721     0.6230867545     -0.9441241572


