100

 C     2.9056481486     3.4699422227     1.2254155373
C     3.8932248012     3.0798397976     0.2925492211
C     4.6572257215     1.8843128967     0.4592585867
C     2.6740213534     2.6044872107     2.3860586738
C     3.5245221938     1.5134304989     2.5775827137
C     4.52719719     1.1432908257     1.6096138967
C     -0.9518714094     3.3404929005     2.8595410487
C     0.4342026634     3.5116034514     2.6663727026
C     1.3534410671     2.5096696912     2.9999247123
C     -1.5021471637     2.1192249428     3.3177587047
C     -0.5892745299     1.038298392     3.6349422392
C     0.831920388     1.2516883202     3.5243793915
C     1.7227385786     0.1070211293     3.5879126193
C     3.0648073371     0.3052401228     3.2137579386
C     -2.4776376692     -0.5359265073     3.4679127264
C     -1.1089395893     -0.3393956427     3.6707398722
C     -3.3636398436     0.5319993661     3.0734623497
C     -2.8898221494     1.8537477532     2.9519209979
C     -3.5381303172     2.6644792573     1.9770832762
C     3.3708920912     -2.0464603133     2.6662674663
C     4.6496147642     -0.2949171623     1.583506759
C     3.86521097     -0.7719319142     2.6830610565
C     1.1942908328     -1.2592986083     3.5802054346
C     2.0558759095     -2.31127665     3.1951209859
C     -0.2229898642     -1.49499227     3.5141329131
C     3.6221688046     -2.9033090807     1.5462994023
C     4.1825066818     -2.385949339     0.3476565467
C     4.7242467916     -1.0232041229     0.3714145889
C     4.7732738496     -0.2338607268     -0.8680165984
C     4.775855078     1.1902978139     -0.8114017307
C     4.2166310775     -0.7877872369     -2.0423415527
C     2.5525880083     -3.8705851921     1.5459686031
C     2.1293686621     -4.4300311687     0.3651208088
C     2.6757150455     -3.9557967201     -0.880478939
C     3.66907973     -2.9400163345     -0.9078704095
C     3.6596718577     -2.119766562     -2.0607249427
C     0.7403896782     -4.7544118571     0.1911807631
C     -1.5398281502     -4.3846560788     0.7655366311
C     -0.2105680287     -4.4749579423     1.2037202317
C     -2.992323006     -1.7571454849     2.9096956304
C     -2.1319669443     -2.836221955     2.5993254147
C     -0.7252820272     -2.7372929553     2.9641364526
C     0.1946239521     -3.6964025622     2.3744246934
C     1.567898195     -3.4815229347     2.549640357
C     -2.526359359     -3.6690265629     1.5253698136
C     3.4896344373     0.0129539672     -2.9765593424
C     3.3345989332     1.403439629     -2.8217146864
C     4.1125235484     1.9931175562     -1.788136972
C     3.6442802415     3.1944360822     -1.1323329208
C     2.5309848788     3.8385812315     -1.6010699635
C     2.4309380668     -0.7918871271     -3.5071511207
C     1.1805697337     -0.2648964574     -3.8156652977
C     0.9834496437     1.1862254433     -3.6920744761
C     2.0688326499     2.0048127045     -3.2275789126
C     1.7421153286     3.2767684058     -2.676328271
C     -1.4286190137     0.8120400028     -3.8188243661
C     -0.367763837     1.7021461414     -3.5973270848
C     1.5959669227     -3.9779761942     -1.8228132036
C     1.45672769     -2.9866420982     -2.8143059267
C     2.5687055964     -2.1287091301     -2.9772544388
C     0.1340092518     -2.5217180208     -3.2157787059
C     0.0453349271     -1.1901589895     -3.7881641342
C     -1.2194234189     -0.6274637742     -3.9204632345
C     0.6499527614     4.3858208791     1.5097550352
C     1.8162679043     4.2974224896     0.7339092137
C     1.647249618     4.4945173762     -0.6696208235
C     0.3502393606     4.4989982507     -1.2514708631
C     -0.8199739218     4.5492474371     -0.4807561221
C     -0.6210048851     4.6428740648     0.9321895341
C     -2.8261148013     3.7383394925     1.3427003313
C     -1.6133017348     4.1207734802     1.8321030041
C     -0.6923753305     2.9212668982     -2.8780342838
C     0.4053179066     3.6961440694     -2.4626090533
C     -2.7259926458     1.0506359923     -3.3286370895
C     -3.0234065229     2.1352307611     -2.4459102065
C     -1.97986559     3.0983430541     -2.2112114355
C     -2.0354333379     3.9294101484     -1.0062827322
C     -3.0753738626     3.6890915142     -0.0893713452
C     -3.3625004571     -0.240960127     -3.183684995
C     -4.3357288945     -0.4471065902     -2.2503915451
C     -4.7287446798     0.6354205529     -1.3795793697
C     -4.0905839281     1.918493968     -1.4741557025
C     -4.0623643051     2.6796463571     -0.292183014
C     0.4215183332     -4.5143233977     -1.1833290374
C     -0.8704786929     -4.1370759747     -1.5971488147
C     -1.0475871591     -3.1437064492     -2.6584216193
C     -3.4072634651     -2.7233338905     -1.7760952987
C     -2.3393560486     -2.4937226442     -2.7701823872
C     -2.3935087649     -1.2826101088     -3.4860083582
C     -4.3840653568     -1.701970687     -1.5350864451
C     -3.1356491362     -3.5788466081     -0.6990911365
C     -1.8800052712     -4.2746773631     -0.6131226027
C     -4.1256777026     -1.4342695888     2.1104528582
C     -4.8449600434     -1.3968405162     -0.2284414929
C     -4.3774643467     -2.132457249     0.8994296338
C     -3.5771896777     -3.2732015658     0.6341872581
C     -4.3953059604     2.084292572     0.9921075376
C     -5.0630195505     0.0479600056     -0.1352885469
C     -4.8214831701     0.7383317781     1.0887555727
C     -4.351473592     -0.0073704617     2.2084798111


