100

 C     -3.4884320904     2.8118795985     1.4676027781
C     -4.4601449968     2.1694525523     0.6486618907
C     -4.933923494     0.8440240161     0.9181477187
C     -2.9642196944     2.0751574356     2.6118482502
C     -3.5061127565     0.8021835446     2.884886088
C     -4.4933664152     0.1812739594     2.0389452776
C     -0.9601865205     3.4838574169     2.6242164923
C     -1.6226691318     2.3353626598     3.1135927269
C     0.6442333199     1.4479863204     3.7213715252
C     -0.806200248     1.2810152949     3.6763092641
C     -1.3517879975     -0.0567399702     3.7601522478
C     -2.6983017766     -0.245067492     3.4134038886
C     1.427949325     0.3183815527     3.9356954104
C     1.312768264     2.5960620825     3.1260121711
C     2.6695649353     2.4613623129     2.5614228911
C     0.4850615454     3.6205841019     2.6564961591
C     3.0187007984     3.3018218273     1.4904632651
C     -3.6904595702     -3.189723529     0.7239558375
C     -4.4563213627     -2.0021366086     0.8296654776
C     -4.2676839984     -1.2470507755     2.0164473796
C     -3.1673631139     -1.5062610617     2.8902683306
C     0.8677599037     -1.0101158968     3.9469716032
C     -0.4936198224     -1.2318058332     3.7471769804
C     -0.8932521567     -2.4764680939     3.1127574809
C     -2.2838447443     -2.5963137991     2.6865638264
C     -2.6422823237     -3.4891392981     1.6552171188
C     -4.8264042737     -1.2897853801     -0.4024291963
C     -5.0740229829     0.1065364228     -0.3379080796
C     -3.2375859193     -3.6763714436     -0.5567526129
C     -3.4925868864     -2.9650144537     -1.7108950577
C     -4.3049350028     -1.7644054838     -1.6379303473
C     -1.9603984767     -4.3229431613     -0.3992340491
C     -0.9605171947     -4.2319360619     -1.4018621033
C     0.3554352423     -4.4624266925     -0.9650194952
C     1.8603130934     -1.9244221642     3.5043081098
C     1.5250508671     -3.0334739174     2.7108420123
C     0.1134910792     -3.3328671172     2.5360247447
C     -0.2723356541     -4.1932666443     1.4149322513
C     -1.6142847266     -4.2404803509     0.9819147709
C     0.688741029     -4.497966986     0.4263859527
C     -3.8044847219     -0.8650482412     -2.6193437019
C     -3.905833862     0.5302023438     -2.4856887369
C     -4.6755190546     0.9893250845     -1.3781398597
C     -4.3953287812     2.2840910437     -0.7843192628
C     -3.4839627334     3.118212064     -1.3805445104
C     -2.6381032823     -1.4713488285     -3.2314230948
C     -1.554517958     -0.7033553839     -3.6762823552
C     -1.6443709058     0.7499597342     -3.5981663829
C     -2.8269953826     1.3594146987     -3.0204922305
C     -2.7090829131     2.676275119     -2.5315596476
C     0.7599840927     0.8459285189     -4.0078846141
C     -0.4279900663     1.5213394456     -3.6716742204
C     -1.1584655723     -3.3541583408     -2.5413047101
C     -2.4543526464     -2.7754557509     -2.6914765059
C     1.4860383292     -3.9463524127     -1.6688428211
C     1.3338520649     -3.0211215762     -2.7135072066
C     -0.0344640237     -2.6769410532     -3.1298811819
C     -0.2683957981     -1.3834331643     -3.7506910073
C     0.8400792254     -0.5894156004     -4.0419685412
C     -1.4464872801     4.1881770369     1.4856888733
C     -2.648928637     3.8152763145     0.8384345216
C     -2.6681100756     3.9703819856     -0.5741096691
C     -0.276941653     2.8027680759     -3.0064730506
C     -1.4629041727     3.3614423091     -2.4726477288
C     -1.4458747247     4.1866215923     -1.3028390947
C     1.001653842     3.2446725986     -2.4964286911
C     -0.2334788849     4.5139068173     -0.6709498224
C     -0.2987492827     4.6628151329     0.7430625633
C     2.0391559993     1.3649268594     -3.6808958652
C     2.1935223151     2.4952911564     -2.8458332157
C     1.0201815827     4.1142325236     -1.3147745137
C     2.1743851416     4.119044388     -0.5128627438
C     2.0783342839     4.2119247846     0.9188056517
C     0.8588344871     4.4251076807     1.534919673
C     5.0257716252     -0.45870047     -0.8382697058
C     4.8758102014     0.9828778237     -0.7487660276
C     4.5648571025     1.605270637     0.499955704
C     3.8754707178     2.8247910883     0.4153738963
C     4.9530446886     -1.2078074376     0.3089192328
C     3.3226324601     3.2980854115     -0.8127524522
C     3.3823633856     2.5319521621     -1.9903465619
C     4.2809769448     1.4294294272     -1.9590754156
C     2.9438623371     0.2295815436     -3.601540995
C     4.4267054141     -0.9252503177     -2.0674976777
C     4.039941994     0.2538078332     -2.7777805311
C     2.5867939892     -3.8422361474     -0.7314651165
C     4.3025551111     -2.4982299364     0.2705124048
C     3.6527595146     -2.9435880123     -0.9194506882
C     3.6400204383     -2.108370246     -2.1089077882
C     2.4646715871     -2.1314481187     -2.9807527649
C     2.187750987     -0.9775848327     -3.7383913085
C     3.0824260157     -1.1667379372     3.3081702821
C     4.0091712793     -1.5633419328     2.36970516
C     3.733300512     -2.7334651329     1.5604788195
C     2.5246609092     -3.4607344904     1.7170491646
C     2.0697765522     -4.1299193793     0.5638236315
C     4.3920787588     0.7972003865     1.7020572384
C     3.4111877199     1.2143430121     2.703944935
C     2.8062285229     0.2191338085     3.4975716433
C     4.6988462085     -0.5834345821     1.5936996441


