100

 C     0.5279348856     4.7053445506     0.3086790631
C     1.4625056955     4.4212055129     -0.7027888609
C     2.761924603     4.0573750738     -0.2509531721
C     3.6394990525     3.2417458658     -1.0603106183
C     3.1960114361     2.8022859639     -2.2832278924
C     -0.8749939179     4.6672922721     0.0644250936
C     -1.4117408109     4.1564501697     -1.1312527068
C     -0.4633110729     3.6675950032     -2.1390136901
C     0.9485447779     3.8904174621     -1.9567387601
C     1.8471994059     3.1066247029     -2.7294608579
C     -2.2333897793     2.1979809689     -3.0160988751
C     -0.8871813921     2.5905533705     -3.0205777092
C     -3.2002721219     2.7418318645     -2.0832597488
C     -2.785211755     3.6455072425     -1.0866419211
C     -3.479495039     3.5415525563     0.1546124457
C     4.1662587352     -0.7567320139     -2.1499650341
C     4.3322009535     0.6128656013     -1.9033059903
C     3.5568868819     1.4826743924     -2.7251104725
C     2.4461917626     0.9870504141     -3.4746569414
C     2.1252485133     -0.3845107454     -3.5389144476
C     3.1137651445     -1.2483649504     -2.9997867552
C     1.4533062632     -3.024798659     -2.7122255334
C     2.7778599925     -2.5531690857     -2.5873568798
C     1.100509494     -4.1057305203     -1.8589428551
C     0.0548148104     1.6245859004     -3.5507282212
C     1.4077567832     1.980414406     -3.4647449104
C     -0.9932935651     -2.5026075639     -2.9546015299
C     -2.6255101493     0.8818328033     -3.3786013075
C     -1.6672641615     -0.1579355931     -3.5820481476
C     -0.2956011358     0.2208079283     -3.7139427924
C     0.7378869922     -0.8032432274     -3.6207792584
C     0.3911931605     -2.1561438799     -3.2241687368
C     4.7416094548     1.0443508576     -0.5576609716
C     4.4385979636     2.3764698435     -0.201282437
C     4.4254200285     -1.7603326608     -1.1469879176
C     4.7134523197     -1.3853189746     0.2019394714
C     4.8652572662     0.0448446259     0.5096038956
C     4.2648001766     -2.2748388633     1.2166389464
C     3.622534835     -2.8898112759     -1.450114617
C     1.9152193085     -4.4105765894     -0.6655101433
C     3.141630069     -3.7495380385     -0.4282416375
C     3.4603240968     -3.4249284694     0.9134734438
C     3.761979929     -1.7534155337     2.4600269662
C     3.8933938621     -0.429268173     2.757658051
C     4.5583969813     0.4574054574     1.8333121523
C     4.0591515885     1.766325615     2.1215314035
C     4.0648725943     2.7238716748     1.1374941296
C     2.5622110209     -2.4519524977     2.8307261333
C     1.4232971162     -1.763872675     3.3184922735
C     0.0518795298     -3.6342100292     2.3955204519
C     -1.2142869277     -4.0571031598     1.9194009084
C     2.4514425177     -3.568676903     1.9392920406
C     1.0430980356     -4.7599613963     0.3890757594
C     1.212918104     -4.1626915146     1.6904736558
C     0.7537314318     4.2655819529     1.6587736996
C     2.9960679255     3.694027659     1.1064656324
C     1.9259258159     3.6184334992     2.0433425413
C     2.9297239571     1.6424543747     3.0387927854
C     0.363343346     0.5156483471     3.5736881512
C     0.5080375585     1.9345968422     3.311157555
C     1.8115863276     2.4795529239     2.9551288163
C     -3.3647182606     0.1038210815     2.9989979232
C     -2.1233807346     0.7180701572     3.3470397396
C     -1.9876500855     2.1367750255     3.0557526481
C     -0.6699005565     2.7324507875     3.0098989228
C     -0.504907753     3.9188738525     2.2489160651
C     0.1264883436     -2.3718263454     3.1153170429
C     1.5324310724     -0.3339527696     3.5751496387
C     2.8027692143     0.2728009222     3.3847366453
C     -2.3786703022     -3.3359946686     2.1667336471
C     -2.3411195232     -2.1131721933     2.8882302451
C     -1.0622458812     -1.5586167695     3.3013722526
C     -0.9550584794     -0.1153935787     3.5155812596
C     -3.4555991503     -1.2672389168     2.7231198806
C     -1.5119738557     4.3604244965     1.3359544677
C     -2.7548548124     3.8053936908     1.385948553
C     -3.0398119303     2.7857306099     2.3421109948
C     -4.9070665588     -0.1922359185     1.2342802619
C     -4.347471628     0.764836621     2.1624830401
C     -4.1518819855     2.0591945365     1.7964907822
C     -4.8677697422     -0.8951801499     -1.0884202577
C     -5.0674636433     0.1511063736     -0.152302862
C     -3.2672871871     -3.4811057512     0.9986359857
C     -4.4553814097     -2.2024851037     -0.6803073167
C     -4.2374183185     -2.4996201145     0.6893542635
C     -4.4221677523     -1.4569269987     1.6299268666
C     -0.2638707306     -4.8693305285     -0.1799825117
C     -3.5515440524     -2.7451017495     -1.6790099632
C     -2.5646441756     -3.6832448889     -1.3614429351
C     -2.5728905794     -4.1852214754     -0.0063096588
C     -1.3611972434     -4.6568512224     0.5890297187
C     -3.8784594541     0.6354835126     -2.7255771255
C     -4.2073922998     -0.6372300058     -2.3513149181
C     -3.3119525132     -1.7308187545     -2.6550792214
C     -2.0269337073     -1.5158321973     -3.2118090802
C     -1.3106744384     -3.6342372251     -2.1013175425
C     -0.2314355399     -4.3871967658     -1.5653125301
C     -4.3958494529     2.4870366552     0.4189983207
C     -4.7600474422     1.531870188     -0.5679607626
C     -4.1992481266     1.7522208754     -1.8569855963


