100

 C     2.5732842766     0.733769579     -3.5610015118
C     2.9769690177     1.8899994793     -2.8780180355
C     4.1520174994     1.7548800732     -2.0667318508
C     4.289112779     2.550677833     -0.8722841528
C     3.3873135816     3.5349743405     -0.6104127884
C     1.1923368439     0.5195533664     -3.8788392154
C     0.1670913446     1.4156311837     -3.5316617746
C     0.5416475326     2.6548620527     -2.8489969002
C     1.9495268785     2.8788502158     -2.5432807149
C     2.2582113287     3.7769659971     -1.4929047845
C     -1.8796158497     2.9879116956     -2.2911050812
C     -0.4844317278     3.3905690618     -2.1513034583
C     -0.1183445089     4.2563584608     -1.0419937688
C     1.2438559238     4.4030585988     -0.7320755553
C     -2.8277745447     3.5134155268     -1.3732341827
C     -2.2316049968     1.7537872157     -2.9873042191
C     -1.1779404963     0.891805317     -3.4879661156
C     -3.5115688422     1.193386429     -2.7713835544
C     4.1743518602     0.6607412758     2.2660668373
C     4.2180486707     1.8334804526     1.5009376606
C     4.8051263972     1.7348949743     0.1994068448
C     1.6977840045     4.4663757618     0.6531947493
C     2.9520483116     3.7897149508     0.7534168379
C     3.2132809508     2.8586939964     1.7760711309
C     0.7944908082     4.3761316716     1.6805391053
C     0.998223843     3.4004798433     2.7186818967
C     2.1323022445     2.585498082     2.745007347
C     -0.6011582906     4.4609858635     1.3933303179
C     -2.3918038114     4.1172190836     -0.1446407304
C     -1.0576056726     4.4838712516     0.0477485396
C     5.1247188832     0.4719815187     -0.3709802714
C     4.6444867822     -0.5900510564     1.7614796088
C     5.0560754875     -0.7266044175     0.3951442833
C     3.8909776048     -1.6278903251     2.4028411263
C     3.5917127699     -2.826874805     1.7252787874
C     2.4006862432     -3.4952908742     2.1120943567
C     2.9071328142     -1.0061918947     3.2723039996
C     1.6339382553     -1.5850952095     3.5160101638
C     1.4837204332     -2.9161586249     3.0783431573
C     -0.9696344494     -2.6883661285     3.1048776129
C     0.1991088191     -3.4375910474     2.83181034
C     -2.1264987854     -3.1737901818     2.4620515633
C     1.9655256114     1.2651600064     3.3166317229
C     3.0572186628     0.3843817155     3.1642058922
C     -2.0228889516     -0.4204612928     3.2894638944
C     -0.3031248637     2.9106995752     3.0897013079
C     -0.5242347639     1.5576610345     3.4418667388
C     0.6421658561     0.7135557356     3.5972302063
C     0.4592162906     -0.7220239609     3.6614831508
C     -0.8614135647     -1.2830368186     3.4871261929
C     4.7287498336     -1.9370231121     -0.2879668982
C     4.0146909447     -2.9773858182     0.3709621023
C     1.6292660441     -4.2425357563     1.1849016586
C     1.8917795644     -4.1503105507     -0.2189972662
C     3.1280427375     -3.5951022537     -0.5891820178
C     -0.5730663325     -4.3821179437     -0.6317470733
C     0.7493290982     -4.0812139002     -1.1447938801
C     -1.6886642668     -4.0537779135     -1.4194380873
C     0.2847038624     -4.2865889882     1.673093975
C     -2.0604163587     -4.0774501946     1.3548025788
C     -0.8048373174     -4.4627245684     0.8199039771
C     4.3002625392     -1.9108998774     -1.6720888569
C     4.2502279718     -0.6942595863     -2.4042604043
C     4.7308852876     0.4898953707     -1.7821883437
C     3.2003491505     -0.5433560463     -3.3499861222
C     3.2874333647     -2.9036982317     -1.8339712985
C     0.8844854037     -3.3025811307     -2.3536786196
C     2.1720229421     -2.7059837581     -2.6927264277
C     2.195412399     -1.5511944424     -3.5031591217
C     -1.5465317068     -3.2138034089     -2.5555197775
C     -0.3046519804     -2.7511990562     -2.9805382335
C     -0.2715927416     -1.4400272992     -3.6330430048
C     0.9735364398     -0.8909566077     -3.8839681303
C     -2.7447309169     -2.4129411009     -2.6985112931
C     -2.6772949636     -1.0884154668     -3.1952159038
C     -1.4012408261     -0.5355465368     -3.5833132195
C     -3.7196008736     -0.2248255752     -2.8141151648
C     -3.6563182267     -2.7728125826     -1.668999824
C     -4.5558110473     -1.8160227537     -1.1050117279
C     -4.682389351     -0.5955569403     -1.8054952751
C     -3.9804128744     -2.7353987792     1.1248696144
C     -3.1812009316     -3.7703634307     0.5079014217
C     -3.0045011728     -3.7739844287     -0.859172651
C     -4.9725831469     -0.5633891471     0.9906017659
C     -4.7127937917     -1.796273829     0.3528745128
C     -2.9116607475     1.8495952811     2.6692594801
C     -1.8563143458     1.0028418372     3.2550491371
C     -4.0777371022     1.2509849246     2.1614440486
C     -4.2329162545     -0.1675285246     2.1656066275
C     -3.2530604515     -0.9982201304     2.7499169353
C     -3.2795418738     -2.3401455657     2.3009660811
C     -4.2831503087     2.8836898262     0.3451513415
C     -3.2051538211     3.611222137     0.9300770989
C     -2.5708005576     3.1520242658     2.1184361486
C     -1.2849970216     3.6579845266     2.3576688197
C     -4.7755530203     1.7687445621     0.9966764679
C     -5.0998790748     0.6181556101     -1.14764584
C     -4.4303577276     1.7279120438     -1.8013880318
C     -4.0753347937     2.8525593163     -1.0928942607
C     -5.2516361469     0.6342889528     0.2359562556


