100

 C     1.1280497413     4.1113851408     -1.8463383604
C     0.5134351109     4.6545789572     -0.7000160565
C     2.3344077956     2.1354044525     -3.5001412622
C     3.0829744211     2.7193067512     -2.5007799843
C     2.5032159122     3.7403328568     -1.6973524211
C     2.5239012913     0.7540007291     -3.8007871636
C     3.4079904036     -0.0465747536     -3.0157239146
C     3.1507278772     -1.4180826336     -3.0452521487
C     3.1346695816     3.6837948912     -0.3998536988
C     2.4417970288     4.0968646414     0.755053246
C     1.1427925546     4.6422847498     0.58842594
C     2.7108997992     3.4070824333     1.9633362715
C     3.9870296718     2.5224200111     -0.3713319404
C     4.3306772357     0.2991132392     0.6647273008
C     4.1433201936     1.7380781385     0.7916078397
C     3.5673556144     2.277396406     1.9846120403
C     3.9528000794     -1.9150538049     1.6836630241
C     4.0670671496     -0.5333243813     1.8484108193
C     4.0735989706     0.5293749008     -1.8328835908
C     3.959687746     1.9111796084     -1.6685170794
C     3.5724948647     -2.281016842     -1.9707645333
C     4.1448020548     -1.7420755811     -0.775833141
C     4.3326821224     -0.3032342371     -0.6483232762
C     3.9840940487     -2.5263137258     0.3865749071
C     1.6486998852     3.163336715     2.9242070837
C     0.316809813     3.5590509284     2.6883586814
C     0.1129207039     4.4057310504     1.5581504778
C     -0.7907879469     2.7156790233     3.1631280189
C     -2.1039389251     2.9222857736     2.5833625616
C     -3.0787908011     1.9293787296     2.7824304137
C     1.9395358324     1.9554846602     3.6150556238
C     1.2502548866     -0.2387157139     4.2526770346
C     0.8989688374     1.1099304531     4.0687580299
C     -0.4886191774     1.4651223376     3.8202844368
C     -1.4671981213     0.3870578398     3.8225410398
C     -2.7472334302     0.6745221854     3.3606250919
C     3.3978740261     0.0430656856     3.0290135396
C     3.1414172497     1.4147428568     3.0576782404
C     2.5106248577     -0.7569265313     3.8111004696
C     -2.2720204807     3.7752254109     1.4012470465
C     -1.1536630484     4.4499924264     0.8885966188
C     -4.1589866658     1.6857223441     1.8387116333
C     -4.2390290099     2.4248543592     0.6798823537
C     -3.2858158288     3.4747707703     0.4545832561
C     -4.454552215     0.2772208198     1.8207730062
C     -4.8351681874     -0.383403546     0.6164420281
C     -4.5354337899     -1.7652284984     0.5628452429
C     0.2744369598     -1.2990841448     4.1295054323
C     -1.0619889031     -1.0265013925     3.8370687799
C     -1.8196240198     -2.0439217175     3.1332492501
C     -3.1352995078     -1.6739255816     2.6195720848
C     -3.591310605     -0.3492536629     2.7732196599
C     -3.7200877224     -2.3984493465     1.5523630589
C     -2.9846959014     3.4700378087     -0.9447885766
C     -1.7316670758     3.8865597809     -1.4485267558
C     -0.9065140828     4.5556355646     -0.5162419717
C     -1.1293313208     3.2022132259     -2.590853221
C     0.2898860453     3.3928754032     -2.8174752353
C     0.9414424075     2.4762041886     -3.665993905
C     -3.7132737013     2.3996276168     -1.5629794669
C     -3.5817543716     0.3503481556     -2.7834016425
C     -3.1253845561     1.6747175222     -2.6282203724
C     -1.8077495175     2.0438482077     -3.1374784303
C     -1.0484274945     1.0259295985     -3.8387560661
C     0.2891529752     1.2976308579     -4.1267003785
C     -4.8328225559     0.3853196823     -0.6308117286
C     -4.5323566596     1.7669455001     -0.5762068228
C     -4.4485972327     -0.275557081     -1.8338594829
C     -2.736383228     -0.6739859304     -3.3679735124
C     -1.454613587     -0.3873620774     -3.8255875466
C     -0.4767576199     -1.4660716127     -3.8200439947
C     0.9118900708     -1.1117963794     -4.0638616889
C     1.2646790821     0.2366206295     -4.2465931689
C     1.9503711417     -1.9580336475     -3.6066646019
C     -3.0707060009     -1.9286228009     -2.7908943233
C     -2.0971799893     -2.9221673266     -2.5885493803
C     -0.7819523178     -2.7164221148     -3.1638952483
C     0.1152480884     -4.4070772937     -1.5559059593
C     0.3234867767     -3.5605317502     -2.6854237548
C     1.6564212481     -3.1656948142     -2.9167958563
C     -3.2865630701     -3.4738753319     -0.4637534816
C     -4.2383241843     -2.4233328504     -0.6922526216
C     -4.1539030758     -1.6842530133     -1.8508066719
C     -1.1536083589     -4.4504999037     -0.8906076903
C     -2.2697914154     -3.7749963603     -1.4070078465
C     0.927492867     -2.4780861783     3.6709921802
C     0.2781855746     -3.3943286098     2.8202883638
C     -1.1401374412     -3.2027350789     2.5889037604
C     -0.9112473189     -4.5563057339     0.5150524683
C     -1.7390862986     -3.8866876608     1.4445639504
C     -2.9901410244     -3.4693393817     0.9366202365
C     2.4950334416     -3.7432454171     1.7076047083
C     3.0727619467     -2.7226009581     2.5129740685
C     2.3212294923     -2.1382043844     3.5098163936
C     0.5080110118     -4.6561849693     0.7035940778
C     1.1191313815     -4.1133963698     1.8519741263
C     2.715227519     -3.4101386544     -1.9523658468
C     1.1416998289     -4.6443030169     -0.5827301054
C     2.4416143164     -4.0997378293     -0.7449930299
C     3.1308782501     -3.6871253934     0.4122330394


