100

 C     -2.1585913438     1.0905225185     -3.6940092367
C     -3.3448080793     0.8450389518     -2.9800229797
C     -3.8309431558     1.9462645641     -2.2167674925
C     -1.3877801446     2.282738521     -3.5075966603
C     -1.758754533     3.2787711101     -2.5875172825
C     -3.0559489138     3.1178526938     -2.0162257616
C     -3.641668173     -0.5258611256     -2.5769831879
C     -4.5432121754     -0.6934237577     -1.479355726
C     -1.2505093933     0.0313742538     -4.0061502971
C     -1.4680194817     -1.2856266272     -3.5888163686
C     -2.7138263354     -1.5945805005     -2.8742945087
C     -2.7775114588     -2.8155573891     -2.0921314096
C     -1.6764414965     -3.6985895429     -2.1584221872
C     0.0733431162     0.5880664697     -4.0833619459
C     1.2328410937     -0.1789863536     -3.8554413264
C     1.0754460549     -1.5912364023     -3.6063837139
C     -0.2839578396     -2.1367845724     -3.4897752434
C     -0.4516939387     -3.365147274     -2.8480619487
C     3.3869628948     -1.611532774     -2.7761996067
C     2.1846896515     -2.3180985233     -3.0310742567
C     -1.0562397931     4.5337022916     -0.6036267719
C     -0.7038347838     3.9855974788     -1.8577094789
C     0.7036669006     3.6775662564     -2.1081826533
C     1.0385880251     2.6419725222     -3.0711145418
C     -0.0076522093     1.9667445283     -3.7414097929
C     2.3155107194     1.9573431466     -3.0447681267
C     2.4162998095     0.5526325515     -3.461513351
C     3.503207583     -0.213861833     -2.9997774171
C     -3.624218325     -2.9007598096     -0.9059791024
C     -4.4718525826     -1.803873039     -0.6180323987
C     -1.308264794     -4.508846979     -1.0408400635
C     -2.0103866956     -4.4408178432     0.1497028611
C     -3.2028534889     -3.6791032918     0.2082673862
C     0.1209375438     -4.6433089576     -1.0005681919
C     0.8279243974     -4.558184191     0.2248843852
C     2.1885049004     -4.2119769476     0.1166124062
C     1.9454204649     -3.5198415671     -2.2439634
C     0.6420417685     -4.027149285     -2.1857216052
C     2.7704334365     -3.8051220316     -1.1158490984
C     -3.3271014878     -3.1658092712     1.5651639314
C     -4.0455772584     -1.980504856     1.8358415478
C     -4.7180589746     -1.3574527857     0.7544441183
C     -3.5590478136     -1.1413868819     2.8779801332
C     -2.1197017333     -3.4741464865     2.2578231782
C     -0.0842514248     -2.4646711482     3.2541008228
C     -1.5299037628     -2.5476676858     3.1606089229
C     -2.3129117337     -1.4267757913     3.5144005312
C     1.8671153601     -1.0486097408     3.6987783884
C     0.4939979697     -1.2294759734     3.797184194
C     0.0973895498     -4.2188698652     1.4582876182
C     -1.2940363398     -4.2816032587     1.4045330814
C     2.8749097165     -3.5331488346     1.191577871
C     2.1496895842     -3.0750508849     2.3233183911
C     0.7313203371     -3.3507508855     2.46294671
C     2.7039120608     -1.9557513469     2.9813110868
C     -3.7056260145     0.2860212606     2.8057549656
C     -4.3525199216     0.9114571151     1.7236090243
C     -4.9264545222     0.0436998808     0.7312787849
C     -4.9363726675     0.4388742437     -0.6571688025
C     -4.5786774713     1.7090931709     -0.9925829857
C     -2.7884195209     2.8817679265     2.0517882848
C     -3.9081619886     2.2532725045     1.3462671108
C     -4.1717616636     2.6665929722     0.0150964831
C     -2.1063206484     3.9301501284     1.4035608116
C     -2.3318693044     4.2406723143     0.0168680512
C     -3.3220314321     3.588630634     -0.6638131462
C     -2.5545017354     0.8848346956     3.4412804583
C     -0.6288199021     2.3775361794     3.3188150551
C     -2.0363652875     2.1322039783     3.0621908592
C     1.4004417498     3.5895287354     2.5332247047
C     -0.0043679549     3.5141426898     2.6568632415
C     -0.7370616409     4.2280057509     1.6836833244
C     -0.3222314886     -0.0214407039     3.9780146961
C     -1.7046690923     -0.168285906     3.8740346596
C     2.4622186342     0.2645772665     3.6519171304
C     1.668547545     1.4354243935     3.6835659983
C     0.2250334901     1.3094548682     3.8036906179
C     2.2457209256     2.5731176385     3.0819912332
C     3.296905236     3.4600979954     1.2305057796
C     2.0357898135     4.1213362781     1.3612642929
C     1.265792592     4.4624788332     0.2202934781
C     -0.1086427613     4.6431442157     0.4537023418
C     3.7840108769     3.1752614647     -0.0240519545
C     3.6404169231     0.1719196557     2.8601472504
C     4.0949383857     1.2513589557     2.0607650811
C     3.4392226142     2.4856193999     2.2853757108
C     3.9524051483     -2.7766097747     0.6387002305
C     4.7981848781     -0.4376302774     0.304870558
C     4.3639238599     -1.5264951809     1.192344473
C     3.7913809119     -1.2001976389     2.4355355598
C     4.5393647922     1.9619218264     -0.2473291372
C     4.6711129234     0.9574315118     0.7441019897
C     4.3313963898     1.6207219895     -1.6232150826
C     4.437400365     0.3198494747     -2.0290014655
C     4.7683559723     -0.7027250253     -1.084560405
C     4.2195353956     -1.9308467092     -1.6244911419
C     3.8898577783     -2.9657437128     -0.7906176184
C     1.689201199     4.0307798263     -1.1048339472
C     2.9832036964     3.4614027883     -1.2027592876
C     3.2970596475     2.4705808234     -2.1755376977


