100

 C     -4.2172223757     1.7103750237     -1.993415538
C     -4.4215951168     0.372181907     -2.1545290604
C     -4.8794763632     -0.442590841     -1.0530429839
C     -4.4616765246     -1.7768419938     -1.3543157656
C     -4.2616945322     -2.6726673403     -0.3324639756
C     -3.1381231501     2.3572485374     -2.6860001363
C     -1.0944901753     -4.2639054705     -1.3769900412
C     -3.2085185508     -3.65806927     -0.451610598
C     -2.3413872671     -3.6580330572     -1.5811870988
C     -3.5571991736     -1.7409579746     -2.4962820873
C     -1.2616454608     -2.0926995972     -3.2604529273
C     -2.4505019777     -2.590834791     -2.5878103031
C     1.1793076601     -2.3086349912     -3.5121063671
C     -0.0491597859     -2.883297162     -3.1475140742
C     0.0267903687     -3.9551638832     -2.2164379698
C     -0.5702839216     3.4602054274     -2.7930456779
C     -0.7684019408     2.1844712823     -3.3571424095
C     -2.1139543811     1.6146456265     -3.3288000471
C     -2.299371364     0.1736298908     -3.4502299523
C     -3.5009642577     -0.3951189154     -2.9572827407
C     0.3908549211     1.3352961755     -3.5219967832
C     0.1550999923     -0.0732500845     -3.7971362285
C     -1.1640786187     -0.6927819748     -3.6267889601
C     1.2711316175     -0.9065544273     -3.8329624349
C     -0.6096290654     -4.5958147516     -0.0717420451
C     -1.3593085907     -4.2834209534     1.080394436
C     -2.7219868527     -3.943832037     0.8569325229
C     -3.4374728588     -3.0775313101     1.7714137808
C     -2.7925768473     -2.595533257     2.8795683593
C     0.8135456255     -4.4840994506     -0.0996895534
C     1.5347708576     -3.9580060409     0.9783465138
C     0.7747100743     -3.5062975574     2.1510829899
C     -0.6454162254     -3.721352954     2.2153973676
C     -1.3979845964     -2.9151338898     3.1166078894
C     2.6960768499     -2.1315264637     2.7872648628
C     1.3507979142     -2.4578880864     2.9704048698
C     4.37622735     -2.3280327501     -0.9156999171
C     3.3509304446     -3.273693215     -0.673651666
C     2.8812722865     -3.4541536181     0.7029277911
C     3.4928853081     -2.6929209849     1.7105544266
C     1.2136033898     -4.1935405923     -1.4685167212
C     2.4117088697     -2.7080060738     -2.9131379432
C     2.4247000356     -3.5487102201     -1.7660983671
C     -3.6607979408     0.9896396094     2.6869726377
C     -3.9294386285     -0.3855644341     2.5741301237
C     -3.0508463745     -1.2400666227     3.3053675351
C     0.5264927474     -1.4614635361     3.6240570966
C     -0.8321890434     -1.7788373136     3.7377020582
C     -1.8347379715     -0.749665573     3.8569463848
C     0.9464043597     -0.0727389865     3.7164909746
C     -1.4636114481     0.6084019618     3.7871908268
C     -2.4699827813     1.4786343848     3.3093449585
C     -4.585155048     -0.881424828     1.3570212335
C     -4.3682757107     -2.2399330353     1.0274213334
C     -4.0430287657     1.9361840277     1.6583557734
C     -4.6371270939     1.4936408456     0.4476650489
C     -4.8960502075     0.0568282853     0.2747562386
C     -4.3914935561     2.315907758     -0.6875007517
C     -3.1315304669     3.0265882407     1.6991345561
C     -2.809338538     3.7836687954     0.550852879
C     -3.5166420158     3.4458875595     -0.6336873158
C     -1.593999564     4.0852674038     -1.98980731
C     -2.8342027534     3.5240470829     -1.9106907725
C     0.838171261     4.3668057047     1.2897395255
C     -0.5086317405     4.1115020246     1.5429585323
C     -1.4800122138     4.3718183071     0.4731968359
C     -0.9703743504     4.6581660916     -0.8185999942
C     3.1954338362     -0.843302831     3.1135988157
C     2.313351084     0.2386902578     3.435378927
C     -0.0689899542     0.9855356155     3.6888238016
C     2.687896007     1.5816530836     3.0298415782
C     1.6440636807     2.5868617089     2.860005784
C     0.2624230631     2.2861523894     3.1737333881
C     -0.8000260763     3.1363778342     2.5983520568
C     -2.1259585743     2.7198824779     2.7013307854
C     1.8952694015     3.6702139549     1.9868995126
C     3.9958595216     2.6935272427     1.2555647887
C     3.0214757448     3.6401611218     1.1061736866
C     2.5957359918     4.028362862     -0.21355563
C     1.3177094764     4.6405220355     -0.0411299885
C     0.42694676     4.6593291935     -1.0824628131
C     4.39729801     -0.6466991198     2.3393575537
C     4.7211534846     0.6202795435     1.9161260318
C     3.9094843179     1.7410680271     2.3183453943
C     5.2291437967     -0.226491116     -0.3347693506
C     4.9847267526     -1.5824718634     0.1386198353
C     4.5608295991     -1.7799945628     1.4498917585
C     5.1454985378     0.8378489223     0.5365599345
C     3.3055303243     -1.5895373933     -2.9967845727
C     4.6789029186     -0.1035750102     -1.661471301
C     4.2937009713     -1.4297268094     -2.0632497094
C     0.6971739971     3.8512725193     -2.254837476
C     2.8837644466     3.1986823801     -1.3252270129
C     1.8316836283     3.0287089056     -2.335390789
C     1.7033434804     1.7798011437     -3.0667618005
C     4.5752900735     2.0732000175     0.0884946548
C     3.921874469     2.187695027     -1.1706989867
C     3.927209162     1.0396530153     -2.0594933136
C     2.8097592934     0.8469001027     -2.9944807694
C     2.5837470284     -0.4478523192     -3.491248619


