100

 C     3.8150054328     1.7856005182     -2.0526961693
C     2.6366355762     2.565586398     -2.4524218914
C     4.4772672138     2.1390996122     -0.8486874763
C     2.3041195892     3.6984663839     -1.6952803085
C     0.951968155     4.1936049128     -1.6234439391
C     -0.1330177122     3.572786709     -2.2748251999
C     0.1558826567     2.390901049     -3.0788105665
C     1.5451294072     1.9461916229     -3.2011158259
C     1.7759203508     0.6490562595     -3.6823423189
C     -2.2948418155     1.8073026408     -3.0053902708
C     -0.9257338804     1.4868942951     -3.3895036283
C     -0.6213509495     0.1084840114     -3.7300868748
C     0.7132526511     -0.2530322808     -3.9004250944
C     -3.2528784633     0.7631588409     -3.0534691072
C     -2.5759486974     2.9565850573     -2.1666617426
C     -1.4758921776     3.8056853291     -1.7491553805
C     -3.7541158724     2.9303406096     -1.3604429523
C     -1.5975115646     4.4846399326     -0.5066634392
C     5.0233986595     1.1298306285     0.0253217701
C     2.9500867829     -0.1264794918     -3.3318536642
C     3.9545213861     0.4048617011     -2.4980089189
C     4.6655003283     -0.5431635315     -1.7037560087
C     5.134848004     -0.1729968684     -0.39124221
C     2.5809449934     -1.5033423527     -3.3036876003
C     3.1827727388     -2.4200220399     -2.4067891852
C     4.2824603052     -1.9252344961     -1.6603778308
C     0.9473566899     -3.6139924523     -2.2871354725
C     2.3560565568     -3.5010575386     -1.8759634331
C     0.0746816293     -4.3696487409     -1.4948937797
C     1.1826182946     -1.5892058032     -3.6291506783
C     -2.8653204809     -0.6175718967     -3.2073858233
C     -1.5455198716     -0.9774892535     -3.4747466905
C     -1.0873581328     -2.2943426483     -3.0698615213
C     0.3377136587     -2.5844793033     -3.1254181384
C     -1.9474968117     -3.0887633836     -2.2246395749
C     -1.3423385149     -4.0989474253     -1.4422866029
C     3.6999219981     -3.3641268026     0.2146680512
C     4.8771315302     -1.2636831549     0.5180829873
C     4.4915678514     -2.3758879713     -0.3026393683
C     1.7300475946     -4.5612944061     0.2784740283
C     2.7130864463     -4.0243287438     -0.6119424247
C     0.4613257077     -4.8260487315     -0.1858037441
C     3.1556028885     -3.2243850283     1.5408524971
C     3.3234390144     -2.0414956633     2.2784820619
C     4.2711602839     -1.0384942199     1.7770553701
C     4.162604646     0.3492225791     2.2218548285
C     4.6060042336     1.4112216263     1.3797941038
C     3.1387038187     0.6754893289     3.1379586399
C     1.9332846986     -3.9851004751     1.5880898154
C     0.830807126     -3.6048578647     2.3745827371
C     0.9494487729     -2.3807177453     3.154409882
C     2.2044571574     -1.6453239028     3.1325979374
C     2.1738109057     -0.3159356192     3.577263779
C     -1.508990825     -2.3058610278     3.303596424
C     -0.2637712198     -1.6951626238     3.5531087343
C     -0.4823428091     -4.0999856064     1.9676150976
C     -1.6243571069     -3.482445222     2.5092734905
C     -0.6539485659     -4.6983747768     0.6884435067
C     2.4994267067     1.9461141685     3.1429515793
C     2.8405633192     2.9560676309     2.2163779035
C     3.9564178441     2.6881248482     1.3786548339
C     3.953442427     3.156442086     0.0099050738
C     2.9363056944     3.9625473634     -0.4294137746
C     0.4145976352     3.6884370309     2.2969811529
C     1.7795979844     3.8517430638     1.7715566806
C     1.927694002     4.4338621601     0.4899542248
C     -0.6370838366     4.2942094586     1.6090790889
C     -0.4500010183     4.8058594055     0.271114468
C     0.7893542316     4.7615687178     -0.3056892418
C     -0.2954013975     -0.2631173951     3.7680463946
C     0.9541268872     0.3622244156     3.8580088644
C     1.1280327365     1.7421276039     3.5581467318
C     -1.2817743998     1.9465483108     3.1199528665
C     0.0605194784     2.5346403119     3.1248888488
C     -1.4584398164     0.552631528     3.4685420672
C     -3.5855690603     -2.2911866395     2.312647968
C     -2.7109970657     -1.5326962509     3.1726687439
C     -2.7075810849     -0.121251654     3.1476034504
C     -4.5097972723     -1.6527577357     1.5264795448
C     -4.6920247562     -0.2306749327     1.6591386421
C     -3.7663883589     0.5596343889     2.4038025198
C     -3.5698370775     1.937207135     2.0068113542
C     -2.3436252877     2.6343248834     2.4048607218
C     -1.9891028247     3.803353481     1.6949862649
C     -1.8059290126     -4.3801661694     -0.1205468475
C     -2.941570555     -3.7356195903     0.4216779375
C     -2.8785551603     -3.4241173327     1.8038595502
C     -4.7255437219     -0.5920668921     -1.8324653225
C     -3.7426520942     -1.4488768484     -2.4316595978
C     -3.2527021586     -2.6062692472     -1.7972379483
C     -5.1608560897     -0.8615232435     -0.5442727289
C     -4.6750383849     -2.026098182     0.1366684352
C     -3.7661292838     -2.930838908     -0.4661422319
C     -5.0285300072     1.5264182369     0.0179080465
C     -4.6542663514     1.8208441134     -1.3640870114
C     -4.4362172476     0.7720258517     -2.2389129784
C     -5.2502234536     0.2291816565     0.4181891682
C     -2.6123872798     4.0998199567     0.4329919879
C     -4.288087953     2.4102994642     0.870231544
C     -3.6911971991     3.3877727961     0.0046201388


