100

 C     -1.3851480416     -3.9592398264     -0.2172814338
C     -3.2159595813     -2.982738983     -1.6411982169
C     -4.3089170654     -2.0810537848     -1.6694184943
C     -0.4816811498     -3.9341119562     -1.3493114953
C     -0.9387657628     -3.3280659398     -2.5373139006
C     -2.2493875825     -2.8212409451     -2.6634097847
C     2.7706861179     -4.0913249417     0.5219555496
C     1.4300066342     -4.3636812775     0.1064786577
C     0.9553464645     -4.0321596387     -1.1774484473
C     3.6668390244     -3.5264469076     -0.3695927839
C     3.1940010115     -3.1194977497     -1.6662367514
C     1.8651219221     -3.3075921501     -2.0665030388
C     -2.1857265111     -1.6036432837     -3.4332356691
C     -3.1118073538     -0.5631934681     -3.2536606217
C     -4.2681669628     -0.8843223693     -2.4859211005
C     -5.019099174     0.1413746111     -1.8195727408
C     -4.5825076191     1.4563406273     -1.9042310743
C     -0.8240156417     -1.3460746608     -3.7553530543
C     -0.2824032456     -0.0422713938     -3.7678236411
C     -1.1879045413     1.0681911819     -3.5000216761
C     -2.6074180884     0.8059112935     -3.3021099433
C     -3.3978997399     1.7860655319     -2.6569023892
C     0.8111538057     2.4972132621     -3.0506239014
C     -0.6188831331     2.2999740105     -3.0158732215
C     -1.4106344109     3.1488110201     -2.152063846
C     -2.7712200161     2.885980633     -2.0014254126
C     1.3396991321     3.5732983378     -2.294571316
C     1.7066850317     1.4042092566     -3.4066377676
C     1.151858645     0.0801193878     -3.616268274
C     3.0749962655     1.5232141732     -3.0789914181
C     1.3017427055     -2.3489635034     -3.0157926968
C     -0.0524703584     -2.4527869378     -3.2819765067
C     3.9156170237     -1.9260986063     -2.0422861269
C     3.314894014     -0.9252601227     -2.8496305998
C     1.955122311     -1.0858337395     -3.3090032032
C     3.8602370121     0.370358833     -2.7448670878
C     -5.4981158055     0.4107367608     0.5749722361
C     -5.036526196     1.7884956489     0.4896398731
C     -5.5002004088     -0.3893731349     -0.5574352864
C     -4.6126723684     2.3117412837     -0.7283524903
C     -2.2379779531     2.8370809746     2.6729290863
C     -4.301186084     2.1003909356     1.684033924
C     -3.2067918247     3.0002546176     1.6531219054
C     -3.4710155588     3.1846766903     -0.7806905251
C     0.5704553318     4.1748727512     -1.2392405931
C     -0.7871054927     3.9165620443     -1.0960571768
C     -1.3778636658     3.9736419784     0.2246875793
C     -2.7530059796     3.5534395353     0.3842319472
C     -0.471610871     3.9469692349     1.3545074034
C     -0.9267752233     3.3416766077     2.5435783694
C     -4.6147472135     -2.2918782107     0.7437253225
C     -4.5802111178     -1.4364914769     1.919488179
C     -5.0407543919     -1.7679131542     -0.4732537931
C     -5.0147916539     -0.1208218768     1.8359053259
C     -4.2604313177     0.9036365835     2.5003778932
C     -3.102742816     0.5805315995     3.265307492
C     -2.1744735016     1.6194057614     3.4425667957
C     0.5664107925     -4.1638266488     1.241843663
C     -0.7910315619     -3.9031855089     1.1020129508
C     -3.4744986578     -3.1667378927     0.7932536122
C     -2.759981919     -3.5366842225     -0.3734216155
C     -2.6005678096     -0.7894322273     3.3125288896
C     -3.3942964006     -1.7682444017     2.669282585
C     -2.7711408491     -2.869208852     2.0122971596
C     -0.812361422     1.3595251076     3.7613584077
C     -0.272952371     0.0548192089     3.7725012464
C     -1.1810275783     -1.0541256538     3.5069353085
C     -0.6153133777     -2.286839885     3.0213778369
C     -1.4106459159     -3.1343536741     2.1595524913
C     0.8144993588     -2.4865248625     3.0525994943
C     1.3393203034     -3.5635126579     2.2952804605
C     2.7170456526     -3.607280968     1.8907891454
C     3.5857219803     -2.6206211234     2.3034216172
C     1.1607139878     -0.0700202042     3.6174048559
C     1.7127653624     -1.3950613116     3.4064078915
C     3.0800585081     -1.5164073001     3.0754001724
C     -0.0401313612     2.4649074775     3.2860985485
C     1.3132539737     2.3587945907     3.0165634027
C     1.965198774     1.0945655187     3.3081608635
C     3.9239915118     1.9314920565     2.0366049678
C     3.3235730257     0.931673632     2.8454256618
C     3.8664375375     -0.3648735432     2.7393147392
C     2.7763834913     4.0986757798     -0.524802778
C     1.4372138893     4.3733061987     -0.1060029575
C     0.9651674312     4.042572153     1.1790796458
C     3.6737878928     3.5322603103     0.364523736
C     3.2034718358     3.1261127624     1.6623265026
C     1.875901946     3.3164677109     2.0658880792
C     4.603400208     2.1115101424     -1.4071034721
C     3.5844601077     2.6265722277     -2.3082607857
C     2.7185168469     3.614709691     -1.8934964814
C     4.6345028873     2.5466523456     -0.0871616864
C     4.811965597     -1.5775908263     -0.980783649
C     5.140331738     -0.2202528429     -0.703440972
C     4.7966727391     0.7182591781     -1.708476786
C     4.7996890342     -0.7143776751     1.7006197704
C     4.6032878477     -2.1073008591     1.3997288169
C     4.6303537257     -2.5424838956     0.0797106111
C     4.8171169804     1.581448716     0.9728803771
C     5.1424572284     0.2235571007     0.6947276333


