100

 C     2.5293452058     3.836852691     0.5496553677
C     3.2165214121     3.3362241352     -0.5764414978
C     4.3242495169     2.4686513958     -0.307817661
C     4.7047251227     1.4499388598     -1.2460916816
C     4.039811514     1.3430779894     -2.4429777393
C     1.1630913562     4.2179187647     0.4721619085
C     0.4136898497     4.1147365572     -0.716950728
C     1.0637214152     3.5401924767     -1.8841973123
C     2.4625702295     3.1815355895     -1.8133322804
C     2.936202667     2.2192820053     -2.746300612
C     -1.158716723     3.123607381     -2.8198807368
C     0.2186031394     2.9130684265     -2.8916105313
C     -2.9851246409     3.5073856469     0.7823891817
C     -1.6451300723     3.9373849561     0.7320821531
C     -1.0238979112     4.1266746444     -0.5740201931
C     -1.7794291402     3.7828958392     -1.715368731
C     3.3375574307     -2.2870159229     -2.605731503
C     4.1582351462     -1.1567964512     -2.3493011429
C     3.791330778     0.035351431     -3.0268762754
C     2.5609851763     0.1346834144     -3.7293956096
C     0.2479567222     -0.6970894835     -3.9739628603
C     1.6616784332     -0.9497867872     -3.8513036352
C     2.1151778675     -2.1861938422     -3.3303541895
C     -2.031536316     -1.5046437289     -3.5692822047
C     -0.6672504798     -1.7733559159     -3.6243681766
C     0.6817176104     1.7448904557     -3.6370482818
C     2.0458084524     1.4766935761     -3.5750958457
C     -2.1016812022     2.1601819586     -3.3559139005
C     -1.6464481088     0.9193929565     -3.8648046584
C     -0.2323335876     0.6656780063     -3.9805617695
C     -2.5461771516     -0.1640162306     -3.736716374
C     4.8362503246     -1.0487778038     -1.0404465269
C     5.1271865811     0.2546798861     -0.5295407238
C     3.1300111915     -3.3039717401     -1.5892547711
C     3.7325910556     -3.1836643898     -0.3605861347
C     4.6183323375     -2.0678568363     -0.080413783
C     1.7874020549     -3.7949414273     -1.6771970012
C     2.9847034993     -3.4981923387     0.8221647555
C     1.6448784334     -3.9286273725     0.7710091714
C     1.0280353178     -4.1290073763     -0.5355151145
C     -0.206658587     -2.9351573089     -2.8674915168
C     1.1704021643     -3.1450400728     -2.7893419058
C     -2.924720344     -2.240191507     -2.7372068812
C     -2.454233452     -3.1944893287     -1.7945290877
C     -1.055172154     -3.5537160511     -1.8576285536
C     -0.4090730908     -4.1183147999     -0.6833756032
C     -1.1624601218     -4.2114130268     0.5040456437
C     4.4691411137     -1.7618676684     1.3084932062
C     4.6592258087     -0.4357895128     1.8018977683
C     5.0370017153     0.5594926064     0.8505829747
C     3.8947354681     -0.0479505285     2.9276099289
C     3.4442256169     -2.6201632689     1.8587241907
C     -0.5547091476     -3.913402063     1.779637599
C     0.8033974525     -3.6276446511     1.9171995919
C     1.2151078824     -2.649861882     2.9235600999
C     2.5756771199     -2.1636939737     2.8777782743
C     2.883439437     -0.902696232     3.4538035108
C     3.441559516     1.3238464612     3.0848309562
C     3.7517731792     2.3133900706     2.0975069412
C     4.5576823359     1.9349859427     0.9932840934
C     2.7797740855     3.3198130344     1.8754403774
C     2.184169342     1.308029686     3.7325071388
C     -1.8442314811     0.1124556261     3.9570296478
C     -0.5266115831     0.5414734732     4.0005774535
C     -0.2137840414     1.9051107921     3.5832637216
C     1.1786117258     2.2737734629     3.4512268105
C     1.540444396     3.3329089048     2.5904415967
C     -1.5469109482     -3.3084370604     2.613447924
C     -1.1879586694     -2.2420276244     3.466415953
C     0.2039854396     -1.87222934     3.6000044987
C     0.5154368279     -0.5050977437     4.0067706414
C     1.8332069813     -0.0764558942     3.9640225723
C     -2.1944443935     -1.2739447383     3.7361018578
C     -2.8927389271     0.9343220944     3.4362900802
C     -2.5830322263     2.190391235     2.8506203337
C     -1.2226082122     2.6769489304     2.8968467465
C     -0.8075116966     3.6461582481     1.8836059873
C     0.5510594521     3.9307460547     1.7481946599
C     -3.4481334489     2.6381787693     1.8248128174
C     -3.9022800831     0.0751321908     2.9139877096
C     -5.0375617077     -0.5499407377     0.8383600024
C     -4.6629803147     0.4533865123     1.7824496691
C     -4.4712175053     1.7752256782     1.2784386997
C     -2.7838282532     -3.3014342244     1.8941982386
C     -4.5587405847     -1.924166498     0.9943460956
C     -3.7565671988     -2.2931709071     2.1044505394
C     -3.4496573931     -1.295275817     3.0843705391
C     -4.0293357579     -1.3614645532     -2.445064628
C     -4.6982558337     -1.4581604069     -1.2495493525
C     -4.3209526724     -2.4688612776     -0.3013873698
C     -3.2123474314     -3.3386767692     -0.5589043393
C     -2.5289732738     -3.8297165582     0.5737129237
C     -3.3264801945     2.2671254358     -2.6362765203
C     -4.1480389853     1.139115236     -2.3730193053
C     -3.7788875217     -0.0587381448     -3.0392141967
C     -4.6157360665     2.0694150402     -0.1135002781
C     -3.7290377478     3.1828002583     -0.4001606738
C     -3.1223366183     3.2926688081     -1.627773143
C     -5.1231064059     -0.2568590042     -0.5445984911
C     -4.8304474932     1.0422032267     -1.0655805194


