100

 C     4.4869348741     1.9940278196     0.7438618608
C     3.7973709864     3.2026745216     0.4662051753
C     4.8434949074     -0.8317458468     1.1946451699
C     4.3538651532     -0.0241266816     2.2005850333
C     4.1969908224     1.3942369153     1.9960952449
C     4.359235416     -2.167337035     1.0693589468
C     3.2752094935     -0.4989108659     3.0195954535
C     2.7151868197     -1.772142967     2.861776731
C     3.3201954186     -2.676575305     1.879687978
C     1.2904196834     -4.0508116953     1.936698207
C     2.5331440924     -3.7883327056     1.346083548
C     2.689068877     -4.1704641081     -0.0343347365
C     3.0616636938     1.8070738593     2.7628879429
C     2.2808491532     2.9247411562     2.4088380722
C     2.7583012944     3.6889079094     1.3106697204
C     0.8707639134     2.9357431523     2.7578017175
C     0.0215690168     3.9202634158     2.1070666654
C     -1.3622578817     3.7984038542     2.2675739958
C     2.4628534497     0.6413537807     3.3602874034
C     1.0830734846     0.5513463612     3.5611399846
C     0.2811931605     1.7562046665     3.3556578618
C     -1.7673286823     0.2922908392     3.5112193623
C     -1.1488402843     1.6186424688     3.4240567505
C     -1.9343726033     2.7022917467     2.970930764
C     -3.1241246791     0.1646412769     3.1548316667
C     -3.838996192     1.2553366484     2.5385748944
C     -3.2600599241     2.4914775493     2.4416026904
C     -1.5576611519     -2.1581837005     3.0745149755
C     0.6940903746     -3.129796892     2.890461817
C     1.3211472353     -1.9217016288     3.2534042205
C     0.4827118632     -0.7806732403     3.5681727392
C     -0.9551258435     -0.909990661     3.5049495815
C     -0.7069200744     -3.2406406763     2.7914482916
C     0.4938415405     4.6176353692     0.9084891395
C     1.8246458376     4.4496011572     0.5067195788
C     -2.3047063479     4.1750761327     1.2164108736
C     -1.8349189999     4.6401130917     0.0164221945
C     -0.4287977612     4.8871974939     -0.1414903708
C     -3.4382884647     3.2798094024     1.2630713993
C     -0.0989695254     4.5479819522     -1.4861787415
C     1.184988158     4.1237750737     -1.854842131
C     2.1903544831     4.3022749708     -0.8636037323
C     3.4134852289     3.5487351581     -0.8900008208
C     3.6233241463     2.6550793323     -1.9125011986
C     -1.2759869156     3.9880835306     -2.1131151243
C     -2.2945738692     2.0810766791     -3.118941664
C     -1.1502331682     2.8812504053     -2.9926663032
C     0.1525387638     2.2971219465     -3.2731801379
C     1.3214312204     3.0249867397     -2.8187985478
C     2.554206452     2.3667571461     -2.8591148387
C     -3.4296974634     3.1389501241     -1.1879246827
C     -2.374692496     4.0971427369     -1.2103878783
C     -4.8373709459     -0.8793752803     -0.8221601669
C     -4.7212809703     0.5302964802     -0.9806996764
C     -4.077442456     0.9465159909     -2.1681359293
C     -3.4323233632     2.2287814513     -2.264449805
C     -4.0101827936     2.7174538823     0.0910020425
C     -4.6445937383     0.7599287141     1.4634561505
C     -4.6469619931     1.4025479995     0.199554854
C     5.0511984984     -0.2603851616     -0.1360644744
C     4.856057275     1.1209446902     -0.378762019
C     4.3664103698     1.4479689726     -1.6762010882
C     3.818077292     0.4456484281     -2.5337548949
C     3.9039467183     -0.9189174348     -2.245387681
C     4.6713920198     -1.2526152973     -1.0844154598
C     3.5248964117     -3.3757155943     -0.8957555641
C     4.3736564351     -2.460319461     -0.3583054977
C     -2.1966289958     0.7011756025     -3.4992000339
C     -0.9571745256     0.0601779871     -3.6360294846
C     0.2481068695     0.8812128434     -3.5773895339
C     1.5207676908     0.203340832     -3.4766012508
C     2.6556702333     0.9890206234     -3.2013309809
C     0.3895072119     -2.032399207     -3.2559045617
C     1.6082644479     -1.2426775498     -3.2671820449
C     2.8275682616     -1.7922654134     -2.7068960108
C     2.7907188235     -3.0861296862     -2.1203127283
C     -2.1149647453     -2.0874539508     -3.0572846318
C     -0.9013506836     -1.3891839378     -3.4398759144
C     -2.006138164     -3.3808428562     -2.4732131356
C     -0.7662218908     -3.9862260169     -2.2540885752
C     0.4302353169     -3.3701162695     -2.6893039925
C     1.615786678     -3.8406581565     -2.0776264038
C     -3.9005777707     -2.991820517     -0.9734415757
C     -4.2205155761     -1.7988447649     -1.7206087498
C     -3.3352400185     -1.3513210817     -2.7456256306
C     -3.3556720618     0.0268454911     -2.9912568501
C     -2.8738957473     -3.7854745099     -1.3773314451
C     -4.6333121631     -0.6769486937     1.5977125593
C     -4.1477265345     -2.7501324253     0.4401889925
C     -4.8067040654     -1.4872477908     0.5016562126
C     -1.019825913     -4.2226784867     1.7652789605
C     -2.0811601806     -4.4861309551     -0.3959703943
C     -2.1880128719     -4.1230397155     0.993032528
C     -3.1947874031     -3.1483910886     1.4041395719
C     -2.8910981177     -2.2102722332     2.490068848
C     -3.663553111     -1.0484203456     2.5990690032
C     1.5740821201     -4.5718844153     -0.8003757333
C     -0.821770994     -4.7285389894     -0.9823932001
C     0.3390021541     -4.8866566818     -0.1924916539
C     0.2198562802     -4.6750783957     1.2135103062


