100

 C     -1.0128917262     -0.7225865906     4.1356584007
C     0.1113388474     -1.4549586736     3.7226985651
C     1.3429126323     -0.7298759031     3.5490429104
C     2.4738616064     -1.4559242795     3.018651698
C     3.6543431912     -0.7263797366     2.785072003
C     4.6462343893     -1.164869987     1.8333120851
C     2.269639922     -2.7260870238     2.3193351415
C     3.2497795177     -3.1212424698     1.3890214122
C     4.4117787266     -2.3212939758     1.1138316776
C     -2.3555039739     -1.1489614246     3.8153214167
C     -0.0972671034     -2.7388704314     3.0434922986
C     0.9294147544     -3.2866172659     2.1967566066
C     -2.5545528881     -2.3347443986     3.1711993162
C     -1.4244642529     -3.1670289301     2.8279429689
C     -3.1585266796     -0.0085547439     3.4762703914
C     -4.0189393688     -0.0079618289     2.3440491329
C     -4.2239370131     1.2613908445     1.6449151947
C     5.3783474737     -0.0016208284     -0.2075739756
C     4.9967347037     -1.1652293034     -0.972855892
C     5.2124695235     -0.0028880789     1.1857427655
C     4.6122455561     -2.3226443532     -0.3227554688
C     3.60851257     -3.1571476052     -0.9095186341
C     2.948265822     -2.7687247156     -2.1061222001
C     1.7273058316     -3.4011930997     -2.3573451488
C     1.5289009114     -4.1972657171     -0.0363460511
C     2.8434737027     -3.7416908267     0.1555831168
C     -2.591569846     -3.9848324981     -1.0237701428
C     -1.2782400856     -4.3989758516     -0.6719447068
C     -0.3152706927     -4.2538590479     -1.6866634442
C     1.0788666517     -4.2092620583     -1.3776137303
C     0.562261497     -4.0752945368     1.0408278906
C     -1.7908027455     -3.9237836479     1.6775486548
C     -0.8350726682     -4.3118474502     0.7266206037
C     4.4097312096     2.3149266777     1.1178004767
C     4.6102019039     2.3189214516     -0.318782419
C     4.6452102007     1.1574817341     1.8353010004
C     4.9957084316     1.1629608465     -0.9708641894
C     1.7243098321     3.3983977738     -2.3515306097
C     3.6057320388     3.153539796     -0.9041204925
C     2.9458281509     2.7665818142     -2.1013887224
C     3.1544147776     -1.4389792052     -2.6606288087
C     4.2446459174     -0.7100377037     -2.1402633819
C     4.2440224862     0.7091016351     -2.1390507131
C     2.0358325649     0.7165475355     -3.2659281047
C     3.1531478851     1.4379694412     -2.6581714018
C     2.0364628401     -0.7175091832     -3.2671546068
C     -1.4272499958     3.1525502897     2.8333449646
C     -0.0996783056     2.7251934515     3.0481641446
C     3.6537061095     0.7164774745     2.786305848
C     3.247026868     3.113372461     1.3943568291
C     2.2672340017     2.7157480765     2.3239864729
C     2.4725791143     1.4445710272     3.0211332393
C     0.926517272     3.2752995257     2.2023658859
C     2.8401771566     3.735577626     0.1619825465
C     1.0751590951     4.204211505     -1.3704180862
C     1.525201238     4.1903139727     -0.0291704223
C     0.5586698922     4.0656351428     1.0477908598
C     -0.8388709443     4.3014974292     0.7339881811
C     -1.7942550127     3.9109570962     1.6842484648
C     -1.0135221877     0.7062340316     4.1368795124
C     -2.3565079562     1.1319737185     3.817269463
C     -2.5566050419     2.3186855083     3.1751802642
C     1.3422742398     0.7166100493     3.5502793083
C     0.1100605727     1.4403055638     3.7251751204
C     -3.524931115     3.508274536     -0.0098157499
C     -3.1377879816     3.4945209845     1.3043015513
C     -3.5602260117     2.4160140083     2.1521428715
C     -0.3190177566     4.2481068949     -1.6793922536
C     -1.2821128739     4.3906354144     -0.6644273133
C     -2.595077699     3.9759334951     -1.0169621685
C     -0.5423821879     3.4186700434     -2.8184461486
C     -1.7689878692     2.7896374005     -3.0367346786
C     -2.8400937177     3.2216218548     -2.2012203264
C     0.7079437145     -2.7836449951     -3.15739213
C     0.7790756203     -1.428317784     -3.5243807758
C     -1.7434902973     -1.4444338831     -3.5902714048
C     -0.4855897306     -0.7198757216     -3.7475902291
C     -0.4862196981     0.7175027061     -3.746362807
C     0.7778197707     1.4266807102     -3.5219412342
C     0.7054942896     2.7813179013     -3.1526376984
C     -2.9353408619     -0.7061774517     -3.4569510162
C     -2.9359592556     0.7011488174     -3.4557502997
C     -1.7447586565     1.4406837029     -3.587806866
C     -3.9422663625     -2.3444416748     -1.9255936213
C     -2.837252664     -3.2287082813     -2.2067368267
C     -1.7665303213     -2.7943505948     -3.0415102023
C     -0.5393679963     -3.4226723356     -2.8242950227
C     -4.0113625288     -1.145739937     -2.5703464252
C     -3.1346994356     -3.5078771475     1.2983105873
C     -4.3093796041     -2.4352311405     -0.5361695248
C     -3.521835318     -3.5197210598     -0.0158262596
C     -3.9443262319     2.3359003257     -1.9215909029
C     -4.3115191388     2.4239837954     -0.5320134298
C     -4.605321404     1.2618571352     0.2341566794
C     -4.0123685983     1.1382443208     -2.5683936286
C     -4.5444632006     -0.0045671839     -1.8865914875
C     -4.7633557229     -0.0058711025     -0.4779922313
C     -4.6042071191     -1.2746777986     0.2319875525
C     -4.2228161635     -1.2762949006     1.6427424334
C     -3.5580890139     -2.4312011796     2.1479955077


