100

 C     4.3030568662     -1.7143817837     1.3651855533
C     5.0424934015     -0.6263557022     0.8231794416
C     4.9058709257     0.7082302682     1.3529554637
C     3.4441918733     -1.4698864855     2.5291135388
C     3.4404217443     -0.1797851439     3.0879583306
C     4.1593833741     0.9149140249     2.4889116269
C     2.1244249008     -3.4668773119     2.012334568
C     2.2728865003     -2.2966736864     2.7875801823
C     -0.1934980238     -2.4379945759     3.2485578851
C     1.0831451561     -1.7563505184     3.4199522059
C     1.0682352959     -0.3617709976     3.8000577804
C     2.2604653699     0.3712331367     3.6745943934
C     -1.3579926017     -1.7451985251     3.5736186872
C     -0.3470401528     -3.5815237734     2.3586073911
C     -1.6247905545     -3.8110046984     1.6514239162
C     0.8304337099     -4.098896507     1.8111657818
C     -1.567210664     -4.4151151665     0.3816180883
C     2.1498782091     3.8613274842     1.5581945264
C     3.2960154533     3.0478926653     1.5662478025
C     3.382108279     2.1106778211     2.6303070098
C     2.2269542181     1.779247749     3.4143945404
C     -1.3492601261     -0.3404977811     3.8595476449
C     -0.1712516247     0.3960835036     3.8619068945
C     -0.2522959222     1.7980896181     3.4796474936
C     1.0033339353     2.4831651375     3.2721938157
C     1.0382635097     3.6228322849     2.4482470714
C     3.9611767608     2.7608365644     0.2952321356
C     4.8529380724     1.662647802     0.2583813066
C     5.0912532511     0.9171583132     -0.9429854456
C     3.2825753158     3.1418184661     -0.9467483274
C     3.5147110607     2.3673761704     -2.1009491559
C     4.4319892037     1.270433459     -2.1113193674
C     0.2280517452     4.6836062389     0.5819231197
C     1.6103691068     4.3888891661     0.3389988541
C     2.0483222356     3.9044604249     -0.9145627731
C     -0.668066593     4.6891979792     -0.4518375101
C     -0.2546210801     4.2023769491     -1.7469362227
C     1.0387054068     3.7086202307     -1.9548092954
C     -0.1611105552     4.1138471989     1.8451388044
C     -1.4136722225     3.4835698137     2.0237896606
C     -1.4781916195     2.3256582131     2.9056530258
C     4.7851925     -1.4720335964     -1.4615371347
C     4.0606948848     -1.0941370492     -2.6674936976
C     5.247818756     -0.4941580934     -0.5952505619
C     3.8706803742     0.2344137068     -2.9641100588
C     2.5923260467     0.6830435068     -3.4412727835
C     -0.7774265613     -1.9045834813     -3.2007132233
C     -0.9842360169     -0.4904281418     -3.4895920295
C     1.4798440892     -0.1900823642     -3.5860264904
C     1.6813956443     -1.5979843944     -3.2984367825
C     2.9788865788     -2.0195962238     -2.8522874313
C     -0.0011722178     1.817235778     -3.2970419971
C     0.1544854288     0.3868769975     -3.56738195
C     -3.6811741102     1.9711617367     -2.5021574808
C     -2.4887587549     1.5188695795     -3.1394866223
C     -2.3245865022     0.0932272024     -3.3646839956
C     -3.4081798554     -0.7464251661     -3.0168589611
C     1.1497910563     2.5913762278     -2.8707840995
C     2.4174853647     2.0145950775     -2.9840745328
C     -1.309652503     2.3671387133     -3.0684018328
C     -1.3896000237     3.5942430925     -2.3576966836
C     2.9073545414     -3.6749757926     0.8418494503
C     3.9483151917     -2.7938747203     0.4606709874
C     4.1635028063     -2.6434005123     -0.9354982831
C     3.1252720291     -3.0379181906     -1.8690166652
C     2.0350979491     -3.8256488748     -1.477932064
C     2.0588991339     -4.3121501877     -0.1423902489
C     -0.3227165031     -4.742059962     -0.2284494588
C     0.8478077578     -4.6788030443     0.5017346079
C     0.5535107878     -2.4309718807     -2.9998794239
C     0.7608458771     -3.6257646513     -2.1617565322
C     -3.1727882651     -2.1021667064     -2.5954433474
C     -1.899998068     -2.682672882     -2.7050372266
C     -1.6755548388     -3.7845552148     -1.8490266345
C     -0.3513023774     -4.2435253254     -1.5827728845
C     -4.9135112629     -1.2739339993     -1.3206195937
C     -4.0598799409     -2.4130501364     -1.5175851705
C     -3.6003129146     -3.1952362773     -0.4187721712
C     -2.4654866202     -3.9714568571     -0.6748001948
C     -5.2300694485     -0.8921256663     -0.02775212
C     -5.02783466     1.4806114381     -0.654491763
C     -4.666367711     1.0708982797     -2.0080216955
C     -4.5626170877     -0.2740078027     -2.3095953362
C     -5.2521352142     0.5224749355     0.3166732882
C     -2.5174446194     3.8477805455     -1.4894361526
C     -4.2721361374     2.651392577     -0.3259045177
C     -3.6123278624     3.0530966668     -1.5456956569
C     -3.428691944     -0.8650350001     3.0363585101
C     -2.5983490429     0.2270811606     3.462658658
C     -2.6763363387     1.5047154566     2.8773907337
C     -4.4344450044     -0.6504791736     2.1245445979
C     -4.6554023529     0.684766652     1.6161296541
C     -3.7588348885     1.7480803835     1.9109121261
C     -3.6001545952     2.7999847499     0.9207213395
C     -2.4284647447     3.6681887774     0.9805937313
C     -2.0258994761     4.3106790894     -0.2186868516
C     -3.8385369583     -2.7461702327     0.9478424433
C     -2.7972963691     -2.9965527083     1.9535957925
C     -2.6484905652     -2.0609689214     2.9909961272
C     -4.6896175818     -1.6248271262     1.1064798517


