100

 C     4.8022976273     -1.095938348     1.6452215652
C     3.9142676706     -1.9415995148     2.422340955
C     5.0485638231     -1.3970239091     0.3144509603
C     3.3711904914     -3.0841371943     1.8705193782
C     2.006256819     -3.4301336321     2.1596381793
C     -1.1160630444     -1.8386165363     3.5004709551
C     -2.5032674973     -1.9106358001     3.2617059057
C     -0.2561939037     -2.7932435258     2.8293176747
C     1.1718855025     -2.6221478492     2.9620009636
C     1.7337456298     -1.3773075076     3.4932492405
C     3.0862232288     -1.0923457693     3.2359819529
C     0.1089912788     -4.1537225328     0.7687141016
C     1.4700694045     -4.0861335544     1.0044248493
C     -2.6350461316     -3.8812249083     0.1367778763
C     -2.2021747126     -3.5733026677     1.4655536547
C     -0.7922496918     -3.6314875513     1.7830783821
C     -3.0389389872     -2.745565979     2.2308432534
C     3.9335337668     2.516015335     1.4295778223
C     4.6936060176     1.348185786     1.1261538552
C     4.574229919     0.2752018578     2.045712058
C     3.5348813801     0.2630822388     3.0337809328
C     1.2820095645     1.086385327     3.6063824001
C     2.6379408329     1.3401126275     3.1792070406
C     2.9300762554     2.5065204104     2.4347046417
C     -1.0194360823     1.8477105166     3.6993160101
C     0.2984497311     2.1342843746     3.3900645062
C     -0.5622781855     -0.5626001477     3.9483718411
C     0.8406086296     -0.271884589     3.8067544523
C     -1.4435650144     0.5353500199     4.0635707705
C     4.951075385     1.0328800322     -0.2838912652
C     5.0598008239     -0.3306550735     -0.6693159945
C     3.4826849153     3.4221540696     0.3930540536
C     3.7446837919     3.1301736561     -0.9250246
C     4.4438897512     1.9114369929     -1.2738461664
C     0.441107968     3.7559667761     -2.4693519613
C     2.7351421241     3.4054052224     -1.9158674774
C     1.4982645294     4.01048891     -1.5749498541
C     2.1925591325     3.9673518004     0.7689164109
C     -0.1980806673     4.2258256418     0.2908595422
C     1.1765443803     4.2559223727     -0.1670352803
C     -2.5808321649     3.8472983424     -0.3500938496
C     -1.2612247409     4.1864246813     -0.718531234
C     -0.9265334048     3.910180852     -2.0639268638
C     0.5550418253     3.2325666567     2.4534104986
C     1.8702739373     3.4150187065     2.0354786314
C     -2.1235114779     2.5282446746     3.0499623505
C     -1.8815476318     3.4277839055     1.9824082926
C     -0.507601317     3.769559701     1.6250870336
C     -2.9141757421     3.5188652062     1.02521366
C     3.8152935434     1.4122537585     -2.4534867183
C     3.6632266726     0.0290637079     -2.6946131637
C     4.4053803264     -0.8241744369     -1.8419651448
C     2.4557914128     -0.471934089     -3.347002933
C     2.1053987514     -1.8609695198     -3.1307397304
C     0.8350401795     -2.281675043     -3.5191526649
C     2.7863866425     2.3356060662     -2.8616459183
C     0.5011978111     2.7101655684     -3.4335172582
C     1.6352956302     1.8763013606     -3.5313005715
C     1.4385499443     0.4565800845     -3.7793220142
C     0.0786599734     -0.0007515434     -4.024945645
C     -0.1556766829     -1.3724214309     -3.9799376027
C     2.7996812334     -2.6908793467     -2.1458782941
C     3.9888096036     -2.1935629992     -1.5931191378
C     4.4307531657     -2.5602609041     -0.2841934416
C     2.0348817312     -3.6714663732     -1.3756764704
C     2.4577515874     -3.9738189844     -0.0692956187
C     3.6397382971     -3.4129838546     0.4866477552
C     -1.262983927     -3.1892636661     -3.0732938056
C     0.1394812527     -3.3810118999     -2.8676913106
C     0.6436216505     -3.93581253     -1.688366633
C     -2.1688848201     -3.6766247117     -2.1337338553
C     -1.6738021413     -4.2158749446     -0.9004402931
C     -0.312681978     -4.2860161906     -0.625110222
C     -0.8426453081     2.2213276218     -3.6353749834
C     -1.0957150264     0.8701803838     -3.8635028646
C     -2.5723641393     -1.1130530717     -3.362690971
C     -1.4687354519     -1.9253112284     -3.6942019377
C     -3.3424158431     1.1811734745     -2.7737310244
C     -2.4084799527     0.3291582068     -3.4638968334
C     -4.3791641425     0.5745353081     -1.9832481017
C     -4.4599609213     -0.8105970756     -1.7970129303
C     -3.5876353358     -1.6947035837     -2.4799495696
C     -3.3562559195     -2.9546868228     -1.866660322
C     -4.3720664677     2.4021284846     -0.3540552583
C     -3.4472486246     3.1159413051     -1.2033923502
C     -2.9655719462     2.5371822161     -2.4111024771
C     -1.7313307992     3.0324996525     -2.8589010711
C     -4.857190724     1.1905503741     -0.7539120422
C     -3.2575925164     1.6668100581     3.0782726641
C     -4.1991164055     1.6318837241     2.0128518689
C     -4.0433769676     2.6511013506     1.0374857943
C     -4.3683982607     -0.827966943     2.3101992915
C     -3.3637392246     -0.7598477724     3.3551073407
C     -2.837836533     0.446421444     3.7375289837
C     -5.1199716301     0.1508333076     0.227945554
C     -4.7716141096     0.3386187617     1.6070521693
C     -3.7060174072     -3.1824184695     -0.4618711153
C     -4.9337812223     -1.0855244558     -0.4282590642
C     -4.4661105933     -2.2294451176     0.2672288881
C     -4.1907801268     -2.0813593149     1.6497789486


