100

 C     -0.6485556461     0.8249960223     4.3605309927
C     -1.9185264624     0.5029728641     3.8482479406
C     -3.2740395463     -1.3086335959     2.7187080816
C     -4.1238718889     -0.2904033104     2.255115982
C     -4.9039361214     -0.4341361685     1.0650726618
C     -4.8142505834     -1.6075452149     0.3264821971
C     0.345895339     -0.1692227256     4.6068368184
C     0.0431599063     -1.4972928502     4.4005663577
C     -1.249083346     -1.870350293     3.9287100933
C     -2.2332610052     -0.9090263924     3.6429769233
C     -3.1329128051     -2.5298040527     1.9181378405
C     -3.9171623347     -2.6432943682     0.7542192009
C     1.0348664635     -2.3615283963     3.8265282167
C     2.9574590317     -2.6235015069     2.4450182153
C     2.3004003657     -1.8591297351     3.4325898441
C     -4.8962359279     0.9117720751     -0.9770723681
C     -4.7239668465     -0.3031141555     -1.7521862956
C     -4.9679811844     0.8508056636     0.4058511464
C     -4.7272681318     -1.5315492023     -1.117219351
C     -3.8157887721     -2.539079178     -1.5688646452
C     -2.9248530243     -2.2817616435     -2.6542898538
C     -1.8225742034     -3.134532651     -2.7342039417
C     -1.0605172022     -3.027321103     3.073808799
C     -1.9010323118     -3.3103644491     1.9989358844
C     -1.3327681099     -3.9806687252     0.8198904671
C     -2.1107337835     -3.9254477618     -0.3943965311
C     -3.3672149791     -3.2702223239     -0.4195179555
C     -1.4506417993     -4.0154133502     -1.6348881183
C     -2.465322425     3.6433123954     -1.478507537
C     -3.5052472331     2.9548307379     -0.8274966426
C     -4.1369348549     1.9542076121     -1.5958892639
C     -3.4544065076     1.3711576944     -2.7339266098
C     -2.2056825212     1.8609143293     -3.1866536686
C     -1.8552435145     3.1238835813     -2.6708710028
C     0.5039554904     2.7643757364     -3.2627371707
C     -0.517746233     3.5902618618     -2.7241744491
C     1.8179532151     3.0909529936     -2.8514578984
C     -2.7959174679     -0.9471388162     -3.2223384305
C     -3.7670010733     -0.0108959841     -2.8016482181
C     1.2944188835     0.4399448019     -3.7866424202
C     -0.6475654897     -2.7606393216     -3.4256503992
C     -0.4061395393     -1.414411239     -3.8297961444
C     -1.4924376861     -0.4695849984     -3.6986358066
C     -1.1794410754     0.9412795729     -3.6661299116
C     0.2077833257     1.3990136935     -3.7004800902
C     -3.4629343226     2.8444576618     0.6328168937
C     -4.2110639714     1.7956456179     1.2062231537
C     -1.475255398     4.3579515145     -0.7591009402
C     -1.3689857304     4.2335125434     0.6604257495
C     -2.3247392984     3.3691458117     1.370224369
C     -0.0888703796     4.4705924233     1.213836431
C     -0.2974038342     4.4295583605     -1.5874403097
C     2.0673570061     3.9760564661     -1.726626248
C     0.9923254378     4.5565584151     -1.0237175644
C     1.0872370115     4.6303706155     0.3904978554
C     0.3135544804     3.8147134035     2.4075604352
C     -0.5770370657     2.9688477456     3.113926466
C     -1.9151334638     2.7237108533     2.5982768137
C     -2.5951998596     1.518555238     3.0504569992
C     -3.7432660744     1.1099907871     2.3676393607
C     0.0269576835     2.0269388294     3.9613527533
C     1.7194622597     3.5352949534     2.3267032622
C     4.59563656     1.3256186166     0.1713556641
C     3.8523743589     2.1711011537     1.0080551923
C     3.322466409     1.6230640919     2.2644447768
C     2.270548582     2.3767024588     2.9270804471
C     1.4383350153     1.7302662141     3.8667423677
C     2.1881590948     4.0279578878     1.0738899656
C     3.2161572634     3.4762381955     -1.0332984205
C     3.2334937869     3.3628019584     0.3832623099
C     4.749030536     -0.0712325856     0.4584260214
C     4.2119498468     -0.6390523872     1.6454465694
C     3.4853825373     0.219308697     2.5783727216
C     2.5972027789     -0.427858216     3.5442573013
C     1.6317680184     0.3621223336     4.1995993768
C     3.9455241866     -2.0299080612     1.5973087454
C     4.7887543608     -0.8003080862     -0.7775049886
C     3.6486014693     -2.5341806993     -2.0259302233
C     4.3379351412     -2.1344661321     -0.8516669453
C     3.9861385254     -2.7745977506     0.3614380666
C     3.7723793603     2.4295358705     -1.8486534361
C     3.2432892878     -1.5333590767     -3.0175121625
C     3.597188995     -0.1776322091     -2.8983726849
C     4.5023114489     0.137842597     -1.8343742404
C     4.5306836749     1.4436879771     -1.2666344284
C     0.4067469509     -3.5920546218     -2.9109279902
C     1.6958622179     -3.198384733     -3.0285932772
C     2.0079863688     -1.9149146936     -3.5950156388
C     0.9769249507     -0.9634486293     -3.8882866033
C     2.6492910902     0.8216106576     -3.3736314389
C     2.8710177466     2.1418588366     -2.932930723
C     0.3390539576     -3.3317294515     3.030128583
C     0.9214396913     -3.9133535727     1.8818569365
C     0.0857539854     -4.2468779845     0.737088668
C     2.1706298367     -4.0694605376     -0.7314003323
C     0.7369417611     -4.3802590676     -0.5645615501
C     -0.0660051138     -4.2738619326     -1.7142036568
C     2.6343679179     -3.5184009352     -1.9717289401
C     2.9245523561     -3.7278105008     0.4063793455
C     2.2972001792     -3.6474050445     1.7056862027


