100

 C     0.1847719676     -3.5610667979     2.7783163037
C     -1.1541039713     -3.1927771954     2.6106156583
C     -2.9196287928     -1.42924645     2.6992571436
C     -3.7069272851     -2.2446523923     1.8398655765
C     -4.6889497151     -1.6909985057     0.9530970846
C     -4.9912195736     -0.3480015069     1.0303748132
C     -0.5995769402     -0.934688549     3.568831573
C     -1.583842233     -1.8804999988     3.0802296237
C     -2.2570322788     0.9236183113     3.2701281967
C     -3.2659750528     -0.0288158739     2.8092502659
C     -4.3583946023     0.4541267527     2.0270842056
C     -2.4726034743     2.2951305397     2.980307436
C     -3.4634179349     2.6989554012     2.0015017283
C     -4.3413832681     1.7961414804     1.5027153965
C     -0.9119488529     0.5018423061     3.595358021
C     0.1623145839     1.480539919     3.6090107155
C     1.1260759819     -2.684191854     3.3702974831
C     3.1698487944     -0.7905385362     3.3655771373
C     1.8613647408     -0.372411472     3.7532176106
C     0.7825101067     -1.3494617702     3.7137270285
C     -4.5423299791     -1.5608617749     -1.4921060872
C     -4.8223658227     -0.1404521093     -1.4086089486
C     -4.5391211467     -2.3337484013     -0.3399928327
C     -5.1064441805     0.4460664383     -0.1886440917
C     -4.6232983682     1.7665305516     0.0844055493
C     0.2784594285     -1.0236429053     -4.1424238624
C     -1.0336698568     -1.3164747332     -3.7179892857
C     -3.522812119     -1.7564743744     -2.4969676871
C     -2.5377249607     -2.7712743138     -2.3862232115
C     -3.1987337326     -0.4668081702     -3.0212020146
C     -1.4791967572     1.180510004     -3.549394648
C     -1.9490213802     -0.1946940059     -3.5727025997
C     0.5346536435     2.5819407206     -3.5730660319
C     -0.1166070379     1.407025553     -3.9640611451
C     0.7221235098     0.3021422582     -4.2831355747
C     -3.4019470215     1.8127414559     -2.0588622227
C     -3.956445147     0.5460496732     -2.3287444396
C     -0.8118329992     4.7574041327     -0.3612124716
C     -1.8191085014     4.0267075379     -1.0507116881
C     -1.4489815897     3.3567968973     -2.3027414323
C     -2.1638075533     2.1736912825     -2.7396608621
C     -0.128434698     3.5532709129     -2.7869761604
C     -3.7893520687     2.4799804175     -0.8161396822
C     -2.8957333876     3.6900108856     1.1395475155
C     -2.9418113477     3.5345709473     -0.2754275709
C     -1.2625167221     -2.5646279826     -3.0363037432
C     -2.6349903277     -3.6623500089     -1.2410767768
C     -3.5676334716     -3.3754418655     -0.2051331004
C     -0.0969037247     -3.3568542697     -2.6157562419
C     -0.2458771651     -4.2595845692     -1.5619181425
C     -1.4837233342     -4.367871759     -0.8440694471
C     2.5651649091     -1.0036540199     -3.7616962449
C     1.4151273125     -1.8543688931     -3.7841695754
C     1.2682002072     -2.9280051566     -2.9060337463
C     3.5854493487     -1.251837184     -2.8525120711
C     3.5085954653     -2.3992355002     -2.0029308421
C     2.3805090194     -3.231116632     -1.9790657065
C     1.951384686     2.5732687987     -3.2010511188
C     2.738405236     1.4044376333     -3.2923490904
C     2.156212082     0.3305615004     -4.0048033794
C     0.2410293461     -4.7707105738     0.6381581073
C     -1.1725107069     -4.5812791804     0.5349760599
C     -1.8828044376     -3.875823479     1.5418338551
C     -3.1275196451     -3.373550214     1.1598095593
C     0.8910818031     -4.3743221501     1.7879119074
C     2.1217549847     -3.9817813791     -0.7538113453
C     0.8464171817     -4.5545518817     -0.6371820837
C     2.2380501026     -3.9386054641     1.7135425451
C     2.8825822789     -3.7136696894     0.4671470196
C     4.2465096945     -2.0888105957     -0.7828063324
C     3.9439814406     -2.7109669966     0.4418716544
C     4.2459194724     -1.952426357     1.6112397037
C     3.4067164917     -2.0828437026     2.7895736366
C     2.4205529823     -3.0182105936     2.8194993389
C     4.6423988339     -0.7204111506     -0.8561332231
C     4.7413020338     0.0952673863     0.2852789804
C     4.6362986212     -0.5873688564     1.5324873166
C     2.1494196849     3.5076226116     -2.1771132819
C     3.0314162269     3.2485242723     -1.0693275405
C     3.8314880731     2.046812616     -1.0899608997
C     3.7335100636     1.1524643037     -2.2479724997
C     4.1848348869     -0.1781479479     -2.1192933483
C     4.0080625447     2.1674478099     1.3665364059
C     4.3584062235     1.509495159     0.1711321431
C     1.4609739009     4.6283540634     0.3177406918
C     0.5571798006     4.7713931677     -0.8073032119
C     0.89212597     4.2082569498     -2.0026738711
C     3.1219044211     3.2792734896     1.3829670897
C     2.6676996415     3.8773418433     0.1930046348
C     -1.7181815146     4.1477505666     1.8055387457
C     2.2491453023     3.1365123764     2.5224328006
C     0.9575039786     3.6504004261     2.5432783868
C     0.648011905     4.5510769782     1.4777139223
C     -0.7281597661     4.7346042307     1.0712693712
C     4.0577838065     0.0906840707     2.6772545934
C     3.7571384861     1.4172748197     2.5878540008
C     2.5623492896     1.9117094394     3.1960702243
C     1.5493970795     1.0359246602     3.6676640859
C     -0.0897245382     2.8493338527     3.1817219461
C     -1.4104585911     3.2206523394     2.8940766214


