100

 C     5.2417362321     0.325899244     0.6787389562
C     4.749294903     1.4821509472     1.4006052788
C     5.2216429899     0.3322532394     -0.7134664045
C     4.4147463211     2.6383999967     0.7306921097
C     3.3019142484     3.4216942881     1.1814371795
C     3.6331537893     -2.9538884505     1.3846158537
C     4.5316409332     -2.0654597754     0.7190135645
C     4.8108681103     -0.8541180201     1.3893400985
C     3.9872921302     -0.4117392218     2.4859763844
C     1.7255895572     -0.5409738473     3.4608513409
C     2.9219792049     -1.189840278     2.9710040287
C     2.8499413896     -2.5202201143     2.4890695726
C     -0.6397675884     -0.7248550141     3.9502646488
C     0.5411206519     -1.3656803932     3.6176235596
C     0.670104327     4.4079761118     1.1534502663
C     1.0232521859     3.4770661695     2.1596225165
C     2.3988841925     2.9644589553     2.1801502597
C     2.6902117553     1.6809651129     2.8057995229
C     3.8933531105     1.0208489582     2.4622416005
C     -0.0491896562     2.7624485611     2.8021396767
C     0.2901143329     1.5121060258     3.4832717507
C     1.6017225603     0.8977975582     3.3707158162
C     -0.7622658944     0.6950513829     3.904650195
C     4.5343033181     -2.0606481862     -0.7474086407
C     4.7818050406     -0.8418775995     -1.4204773714
C     2.8473534477     -3.9255715398     0.6607092079
C     2.8922390801     -3.9480982005     -0.7174144313
C     3.6773724523     -2.9599410943     -1.4266378727
C     1.5775793428     -4.1112175803     1.3475001685
C     -2.09918421     -4.0194218909     0.4986017489
C     -3.2601515927     -3.3913206087     0.9562944643
C     -0.8724397658     -3.9941840801     1.305180995
C     0.3743984385     -4.3867862594     0.6779561983
C     0.4641592704     -4.5119053359     -0.7866321725
C     1.6813079212     -4.204326515     -1.4453171468
C     0.4296879239     -2.6886495254     2.9984495597
C     1.5940155821     -3.2390955771     2.4714312923
C     -1.9305896118     -1.3020347971     3.6801030086
C     -2.0538904012     -2.4932291408     2.928995161
C     -0.846233789     -3.1785543879     2.4994371608
C     -3.2560272493     -2.6384883668     2.1852525205
C     1.6823077052     -3.3115913264     -2.5645817879
C     2.8780732722     -2.5284327628     -2.5250069442
C     2.8538349408     -1.1803094428     -2.9612398993
C     3.9213246837     -0.3986419182     -2.4902073797
C     -0.6672370709     -3.480243479     -2.7238171622
C     0.4982287231     -2.7822642218     -3.1075363802
C     -0.6860579909     -4.2962624371     -1.5449905629
C     -1.9774833604     -4.1578929708     -0.9352307054
C     4.4072728984     2.6440193421     -0.7284893856
C     4.7160838301     1.491644742     -1.4175021734
C     0.4109441821     -1.3702296639     -3.4845904628
C     1.5986540327     -0.5414911407     -3.3641607636
C     3.8261269389     1.0309390921     -2.457793732
C     2.6207605267     1.6881847963     -2.7785492568
C     -1.9493367785     -2.9116143116     -2.8799219405
C     -2.0851221136     -1.5964946118     -3.3403473785
C     -0.887958648     -0.767206159     -3.5828457659
C     3.3094794829     3.4414392401     -1.1696458968
C     -2.3405957901     1.2460796836     -3.3097082243
C     -1.0124653498     0.6759114156     -3.537045866
C     0.1651242204     1.5029850515     -3.3409082631
C     1.477365617     0.8906715883     -3.2667223544
C     2.4054982204     2.9984620508     -2.1784705807
C     -2.4542375562     2.5578910738     -2.8479381558
C     -1.3064500126     3.3655202581     -2.6606801233
C     0.0035949577     2.8860699472     -2.8915796968
C     1.0838281818     3.5801205481     -2.2102062876
C     -3.4655947463     0.4014691396     -3.0282919752
C     -3.3378246438     -0.9808521503     -3.0336843965
C     -4.2107511979     -2.7671940164     0.0608604143
C     -3.9252084795     -2.6955899722     -1.3359490259
C     -2.8027889431     -3.4283561345     -1.8102031363
C     -4.2643783872     -1.5335180077     -2.0450699053
C     2.7940405601     4.0930808918     0.010444474
C     1.5327730703     4.5875618169     0.0049683638
C     0.7462838241     4.5138870702     -1.1872696721
C     -2.8490722851     3.8320976368     -0.947421543
C     -1.605372341     4.2351164596     -1.5480330955
C     -0.5998114598     4.6953309638     -0.7627568435
C     -3.9181371519     2.7862460032     0.9399832858
C     -2.9425478057     3.6685971553     0.4883698715
C     -4.4867139301     0.7572448248     -2.0452588596
C     -4.7132869228     1.9875826829     0.0480795826
C     -4.406035056     1.9718421003     -1.346344325
C     -3.4512919876     2.9119394983     -1.8181083574
C     -4.7769172047     -1.652313332     0.733943031
C     -5.0296555995     0.7725496532     0.727320114
C     -5.1396816018     -0.4602914471     0.0227982834
C     -4.9173607504     -0.4402538161     -1.3975026674
C     -2.8756244038     -0.2333550908     3.5652442392
C     -4.4532059436     0.8342381969     2.0680625951
C     -4.007883301     -0.3498090501     2.7238617958
C     -4.2154172652     -1.5947919157     2.0764664507
C     -0.6654671152     4.5470696315     0.6977334993
C     -1.735133582     3.8897823813     1.3087783943
C     -1.4349411671     3.0299069079     2.4433543338
C     -3.7225547167     2.0408929691     2.1687623636
C     -2.4879078523     2.1304814034     2.8900938079
C     -2.1394843408     1.001492412     3.6468144061


