100

 C     2.4324519691     3.9563032495     0.9025921244
C     1.1485238667     4.4645471747     0.5653288035
C     -2.9220539189     4.1986213183     -0.207097278
C     -1.6146965383     4.5725101168     0.2302305844
C     -1.1230479147     4.1610812457     1.5009527258
C     0.2636366629     4.2103404988     1.6646404792
C     -3.7582370349     3.5158457846     0.645176985
C     2.3213930771     3.2944706093     2.16259734
C     3.1619160614     2.2240996456     2.4937229442
C     4.3207980235     2.0767868062     1.6830843854
C     5.0304670443     0.8249467698     1.6231308042
C     4.5306706934     -0.2496871003     2.342585783
C     0.9485576597     3.338443834     2.5677825263
C     0.2958204049     2.1885444893     3.0802192956
C     1.099901144     0.9969419521     3.3200411567
C     2.5510242769     1.0660860263     3.1351418293
C     3.2880587932     -0.1275916596     3.0854904139
C     -1.7951370887     0.8383993054     3.1621447977
C     -1.0009525996     -0.3657401377     3.3227860755
C     0.442688097     -0.283227456     3.3623422386
C     1.2246105874     -1.4937410941     3.1263465878
C     2.6201497871     -1.384275903     3.0196130302
C     -3.0139134124     -1.7346091254     2.8907987907
C     -1.6167675138     -1.6682210814     3.1286313675
C     -3.2198645264     2.9927977533     1.8984161226
C     -1.8720671509     3.1845548926     2.274548253
C     -1.1465364454     2.1094827202     2.9555738831
C     -3.8754390748     1.7713643043     2.1562467422
C     -3.2025717051     0.715193404     2.821207658
C     -3.7780454036     -0.5578137771     2.6709242691
C     5.5296891015     -0.6403183859     -0.286711822
C     5.0760555492     -1.7722327067     0.4907363123
C     5.5308083074     0.6351060443     0.2754489761
C     4.5817600403     -1.5809587357     1.7803313636
C     2.4275505273     -3.9594543587     -0.9060485964
C     4.3780413577     -2.6848378058     -0.3843649912
C     3.3118334749     -3.4888924278     0.0860722904
C     3.4029895486     -2.2882241687     2.2176377452
C     1.3818442678     -3.546949506     1.7174572525
C     2.7700123975     -3.256119339     1.4294465023
C     -0.7358836342     -4.4887871285     0.9068332826
C     0.6528316663     -4.3465729277     0.7584331201
C     1.1441389251     -4.4668456468     -0.5655520206
C     -1.4416191851     -3.8545212479     1.9869765722
C     0.6228862018     -2.696140401     2.6109646071
C     -0.8118913911     -2.8172748873     2.7082817429
C     4.5783252381     1.5763815925     -1.7892088565
C     4.5249326089     0.2451393643     -2.3513296803
C     5.0759745304     1.767322562     -0.5008575398
C     5.0258223611     -0.8298238142     -1.6331327149
C     4.3151775915     -2.0811946786     -1.691296331
C     3.1541546732     -2.2277310457     -2.4990106645
C     2.313752432     -3.2975402776     -2.1657653443
C     -0.735173759     4.4877429342     -0.9023302315
C     0.653812045     4.3445995773     -0.7574179057
C     4.3807721187     2.6803898355     0.376000133
C     3.398923511     2.2844312871     -2.2235466286
C     2.7685692173     3.2527388453     -1.4337602187
C     3.3139179385     3.4851540733     -0.0917552375
C     1.3798742715     3.5444926082     -1.7182769243
C     2.6134667851     1.3810015212     -3.0235427711
C     1.2177346781     1.4913946245     -3.1267712556
C     0.6181047198     2.6941881297     -2.6098727047
C     -1.6235260649     1.6677596493     -3.1219115346
C     -0.8168327749     2.8162735279     -2.7035798042
C     -1.4440478006     3.8539429483     -1.9806893557
C     -3.020031951     1.735086473     -2.8805662804
C     -3.622214667     2.7875211499     -2.0888091043
C     -2.826240674     3.7933227244     -1.608220766
C     2.5424228395     -1.069315144     -3.1388897608
C     3.2803688905     0.1238729748     -3.091098111
C     -1.8036456347     -0.8387353077     -3.1549673168
C     0.9398751537     -3.3405951534     -2.5674862737
C     0.2866139951     -2.1902678536     -3.078282874
C     1.0908771306     -0.9992020531     -3.3201366344
C     0.4344177251     0.2814005431     -3.3608001566
C     -1.0090716186     0.3648788008     -3.3176198256
C     -1.8799030928     -3.1848334078     -2.2671670995
C     -1.1553712771     -2.1102499658     -2.9500144125
C     -3.2266196437     -2.9921830633     -1.8876438813
C     -3.8820258428     -1.770309125     -2.1438189714
C     -3.2101355574     -0.7145936691     -2.8104861987
C     -3.7843867058     0.5587981552     -2.6587625557
C     -2.924320335     -4.1982161389     0.2171113913
C     -1.6183084784     -4.5729782978     -0.223503874
C     -1.1295839244     -4.161865878     -1.495455063
C     0.2566496862     -4.2120431121     -1.6626284805
C     -3.7621839997     -3.5148773458     -0.6330533436
C     -4.6433173678     -2.1938399952     1.2618426439
C     -3.6187996109     -2.7866497849     2.1005816027
C     -2.8247098224     -3.7929802329     1.6179913283
C     -4.6915075938     -2.5347172818     -0.1044784721
C     -4.829851368     1.501546201     1.0891685515
C     -5.1467906605     0.1731163876     0.7198949213
C     -4.7816385991     -0.8317051215     1.6509815363
C     -4.785223569     0.8333555486     -1.6362867566
C     -4.6449971135     2.1954015724     -1.2474889622
C     -4.6895420226     2.5363152935     0.1189408019
C     -4.8335725305     -1.4998614178     -1.0743449939
C     -5.1486910574     -0.1712106764     -0.7042800941


