100

 C     4.9652770048     0.095931749     2.2868182329
C     3.977215575     -0.4576725702     3.198363542
C     5.4187083367     -0.659121059     1.2063243009
C     3.5463118961     -1.7705818735     3.0372854608
C     2.1820309725     -2.0973774098     3.2803935687
C     1.2221387732     -1.1196930757     3.6337782897
C     -0.4888837608     -2.6826066402     2.7840768845
C     -1.8011753078     -2.975424291     2.4885927551
C     5.2960891971     1.297046262     -0.2767156981
C     4.8172646031     2.0797195636     0.8428193201
C     5.5634264347     -0.0521738748     -0.1032992019
C     4.634379216     1.4877720562     2.0901261228
C     3.4362400582     1.7693927388     2.8301215144
C     3.8364670725     2.9955017752     0.3433101208
C     2.6904521722     3.3208210837     1.0735774744
C     2.4783357154     2.6707774773     2.367559103
C     -0.1753145234     -1.4323585351     3.4417708233
C     1.6432269015     0.2593024025     3.7130958214
C     3.0147493412     0.5587494074     3.5153344528
C     0.1861777805     3.4079002282     2.384782075
C     1.1309601926     2.5287392737     2.893463634
C     -1.1841041069     -0.4128685687     3.5127340466
C     -0.7570376982     0.9874993334     3.4990970228
C     0.6576343506     1.2995339439     3.4998909223
C     3.1770153488     1.2613084824     -3.3342832174
C     4.2645832328     0.8623725941     -2.5152336786
C     4.6207838918     1.7632746644     -1.4727894957
C     3.749615456     2.8321557246     -1.0954067011
C     0.392348744     4.0495039821     1.0857111263
C     1.5389314496     3.8242068581     0.3396610639
C     1.3965263347     3.6356290873     -1.0906701709
C     2.5442588049     3.0991462     -1.7952853195
C     2.3405256845     2.3690739817     -2.9827980018
C     4.5008176063     -0.5746957475     -2.3099961417
C     5.1176874955     -1.0068417847     -1.1052172235
C     2.3292731659     0.2931796096     -3.9838819638
C     2.5287039648     -1.055626986     -3.7653879701
C     3.5984055678     -1.4965283011     -2.9081349384
C     0.9890918325     0.807663012     -4.0475715658
C     -2.5153023892     -0.2560864299     -3.3395224625
C     -3.7220635525     0.3332424888     -2.9439995871
C     -1.3765610584     0.609708997     -3.5359608782
C     -0.1371080861     -0.0137152709     -3.9187373913
C     0.0736331795     -1.4350672204     -3.6605703835
C     1.3888321288     -1.9101264675     -3.5723925422
C     -0.1220046186     2.6391289127     -2.8120319153
C     1.0021338055     2.1101802884     -3.4438922847
C     -3.453824264     3.4328119319     -0.2872994505
C     -2.4232716874     3.4067791513     -1.2623349425
C     -2.5659343279     2.4529830586     -2.3535395046
C     -1.3854731315     1.9543821596     -3.0189127924
C     -3.7467037256     1.6859529761     -2.4458853611
C     0.0700119875     3.5153744192     -1.6580185388
C     -0.8743468803     4.210236957     0.4805649956
C     -1.087237248     3.8587405986     -0.8756775277
C     3.1186748443     -2.6409043475     -2.1949728612
C     3.5680284696     -2.9509610792     -0.8967506539
C     4.6782909606     -2.1888259856     -0.4224677584
C     4.8948828733     -1.9950408076     0.9946490994
C     4.0055150058     -2.5466060007     1.8934933946
C     1.7548206612     -2.89284858     -2.5895666478
C     0.8045296724     -3.4167949212     -1.7079914513
C     1.2250817534     -3.7379549494     -0.3454903008
C     2.6064137305     -3.5163378789     0.0463657187
C     2.8897218694     -3.3385964999     1.4238531765
C     -1.191205344     -3.8935132997     0.2785105749
C     0.2019457168     -3.8055479377     0.6554992379
C     0.5097571316     -3.3678920697     1.9933633834
C     1.8281813819     -3.1437541912     2.341578384
C     -2.1557567191     -3.7119578337     1.2889812304
C     -1.5921734478     -3.642333275     -1.0922653048
C     -0.5914764035     -3.184216818     -2.0224906302
C     -2.9419407255     -3.3518708394     -1.3642920241
C     -2.2998753662     -1.6757389235     -3.0533046689
C     -0.9528065655     -2.1925129985     -2.9990745858
C     -3.3000675938     -2.3811271393     -2.3702500752
C     -4.9245688452     -2.290769497     -0.6837399806
C     -3.9358574459     -3.2840548397     -0.3227923144
C     -3.5173385581     -3.4001241024     0.9984607047
C     -5.4445754977     -1.4287035161     0.2877296895
C     -5.3887486203     0.4480716142     -1.3026678392
C     -4.7544375131     -0.4197285335     -2.2671885592
C     -4.5403960841     -1.7581419924     -1.9733707759
C     -5.6917720409     -0.0440297032     -0.0282260458
C     -4.8392752996     2.0302862157     0.9857180798
C     -4.5955801381     2.5713970904     -0.3500295947
C     -4.7907858252     1.7588386936     -1.4529491955
C     -5.3221112649     0.7459231169     1.1380156894
C     -1.8536777809     3.8806408572     1.4798541517
C     -3.8103454684     2.5108302444     1.8552839686
C     -3.1082504284     3.5293708593     1.1132826525
C     -3.9761159019     -2.4318339889     1.9809371329
C     -2.8573228266     -2.0857974919     2.8214630931
C     -2.5676417934     -0.7511522107     3.207615073
C     -4.8967921452     -1.4707734302     1.636375858
C     -4.7134134564     -0.1187740115     2.1171542232
C     -3.5435723886     0.2723522151     2.8367543249
C     -3.0961472407     1.6481660573     2.7352333903
C     -1.716335027     1.9912063835     3.0897013061
C     -1.1958292235     3.2067890213     2.5706919068


