100

 C     1.3311870627     4.4912776865     0.7120289977
C     2.3131645486     3.8141510883     1.4508728719
C     3.4676165854     3.4276148582     0.7172743393
C     2.7648172909     2.0293087721     3.0585952904
C     1.8838543439     3.0222556621     2.6094513279
C     0.4716888297     2.8661595517     2.9140748411
C     -0.4690263369     3.7521580131     2.2414179947
C     -0.0327580104     4.5422682796     1.1503999723
C     -1.8470736229     3.4468063018     2.2857142621
C     -0.0184626031     1.6264181262     3.4891914317
C     0.9086690654     0.5840212342     3.8332198158
C     2.2906830934     0.8542247635     3.6952123479
C     3.4694277314     3.4236187727     -0.7089650477
C     1.333000658     4.4872800157     -0.7151076473
C     2.3168464549     3.8060318818     -1.4476493523
C     -0.0298259661     4.5358060028     -1.1572239362
C     -0.4633265794     3.7395885757     -2.2449013348
C     -1.8412580057     3.4339818677     -2.290985503
C     -0.8674963676     4.707778928     -0.0049473829
C     -2.7368329577     3.7753459595     1.2175786737
C     -2.2205202587     4.2874898912     -0.005488741
C     -2.7337302059     3.7684990823     -1.2269759114
C     3.9747648105     1.6529595471     -2.294346212
C     2.7725715617     2.0122124137     -3.0441907003
C     4.2840721042     2.303863116     -1.1323770845
C     1.8904763772     3.0076536257     -2.6028581844
C     0.4790873739     2.8498409073     -2.9101901293
C     -2.3160361189     2.2237645276     -2.8999991359
C     -1.4285914889     1.2507334037     -3.3856124366
C     -0.0096093669     1.6068938616     -3.479596895
C     0.9183877062     0.5625939427     -3.81542025
C     2.3000484263     0.8335768677     -3.6754154901
C     -3.190792958     -0.4744204314     -2.8639758854
C     -1.8703754414     -0.1449771521     -3.389907552
C     -0.8861293129     -1.1868888192     -3.5378444732
C     -3.4533563755     -1.8142710909     -2.4913722853
C     -3.5706669463     1.8850074541     -2.2879558509
C     -4.8885195791     0.2103267696     -1.1659112941
C     -4.0263359826     0.5517094656     -2.2461713089
C     -3.8075379176     2.8133682928     1.2188973143
C     -4.3810996704     2.3553873237     -0.0028219031
C     -3.8044375101     2.8065248416     -1.2256286444
C     -4.9473110742     1.0586693807     0.0000926083
C     2.8370762345     -1.516087288     -3.3798145817
C     4.1761698891     0.2374627543     -2.3826034503
C     3.2421531515     -0.217922549     -3.3724649658
C     -1.1588665836     -2.5221515176     -3.0322915008
C     0.4869843576     -0.8340341327     -3.8350592212
C     1.4666498706     -1.8398441815     -3.692528656
C     -2.4260623227     -2.7929847811     -2.5062466293
C     3.3387513583     -2.4252839489     -2.3837058283
C     4.0491844538     -1.9544509072     -1.2464042022
C     4.4956436432     -0.5612497732     -1.2469719679
C     4.7513607246     0.1286641966     0.0150239412
C     4.7293473355     1.5524034646     0.0110061738
C     4.2811753426     2.3102555898     1.1490242638
C     4.4924377516     -0.5541715653     1.280211198
C     4.1700802231     0.2508899547     2.4105320461
C     3.968907085     1.6658680622     2.3138304771
C     2.3601340553     -3.4691277885     -2.2954289224
C     3.8521980653     -2.6629850132     0.0217015429
C     4.0459685605     -1.9473572461     1.2863149426
C     2.2142204592     -4.1708039822     -1.1226951316
C     3.0065556199     -3.8043671284     0.0238245082
C     -0.0942156675     -3.4196947867     -2.6277111106
C     1.1944838921     -3.0978761582     -3.0561818721
C     0.9054245002     -4.5845745389     -0.7010136366
C     -0.2459692823     -4.2401120968     -1.4274066018
C     3.2335475081     -0.1989494803     3.4005531468
C     2.8284444762     -1.4970561442     3.4141471349
C     3.3326419602     -2.411814963     2.4244263551
C     0.9035835945     -4.5805162996     0.7476799392
C     2.2113065056     -4.1643798371     1.1703612044
C     2.354242938     -3.4561424005     2.3395112201
C     -0.2496497763     -4.2319978692     1.4692027952
C     -0.1009425105     -3.4048662029     2.6652743743
C     1.186665935     -3.0806421932     3.095207524
C     -3.7869944778     -3.2693274851     -0.6851104391
C     -2.6125803571     -3.6933035592     -1.3784039407
C     -1.5021348199     -4.2321428875     -0.7097481035
C     -3.7887685701     -3.2654090157     0.7124813951
C     -2.6161249481     -3.6854887889     1.4111233066
C     -1.5039873172     -4.228057898     0.7483212889
C     -5.0085237069     -1.1428130157     0.7349173414
C     -5.0066728774     -1.1468956541     -0.7225397823
C     -4.3582290498     -2.1509234777     -1.4075992644
C     -4.3618310609     -2.1429809794     1.4272386311
C     -3.5764770678     1.8978226762     2.2869626307
C     -4.0320491194     0.5643073025     2.2514930278
C     -4.8914859196     0.2168751274     1.1709752841
C     1.4572243676     -1.8190633262     3.7251848638
C     0.4772071814     -0.8124783758     3.859587507
C     -1.166612595     -2.5050790377     3.0621133033
C     -0.8951496196     -1.1670028722     3.5608674649
C     -1.8790079408     -0.1259433284     3.4045910557
C     -1.4372041159     1.2697253463     3.3935973914
C     -2.3234046736     2.2400147276     2.9002871421
C     -2.4324692015     -2.7788652618     2.5343757394
C     -3.4597149627     -1.80025628     2.5114064488
C     -3.1980858632     -0.4583367474     2.8771616816


