100

 C     -2.6095237675     3.6796817964     -1.0943297831
C     -3.3466929891     3.2514285743     0.0300845601
C     -4.3226660455     2.2616137903     -0.2292741422
C     -4.8355219625     1.4322984029     0.811872403
C     -4.2926806959     1.5474494468     2.0870453233
C     -1.3667226772     4.3416446998     -0.9483064441
C     -0.6881632536     4.4012414163     0.2911268587
C     -1.3460765587     3.8118144364     1.4536659177
C     -2.7075425121     3.3350203217     1.3353098035
C     -3.2084871711     2.4674667778     2.3407657718
C     0.8702142312     3.5006504592     2.4827270526
C     -0.5193948678     3.2828199373     2.5230357287
C     1.5137565453     4.1597482142     1.3768736038
C     0.7727496237     4.5407570796     0.2464386258
C     1.4556184568     4.4675987768     -1.016386861
C     -4.9159549264     -1.0062417638     1.0007505626
C     -4.3666121475     -0.8977773274     2.3421490568
C     -5.1221885204     0.1249660322     0.2452113452
C     -4.0539590662     0.3479098414     2.8651363394
C     -2.8228502488     0.5176602685     3.5716510156
C     -3.4621922327     -1.9921998211     2.5194171009
C     -2.2495424632     -1.8531843926     3.2087242176
C     -1.9213860233     -0.5376399229     3.7640298395
C     -0.9676720981     2.1754163941     3.3438693852
C     -2.3278478753     1.8482216192     3.2839482786
C     1.7928689927     2.5882784646     3.0641150441
C     1.3775918522     1.3780356868     3.6777365807
C     -0.0397466353     1.1705787986     3.8400358045
C     -0.5413220818     -0.1771531333     4.0360127843
C     0.3798125506     -1.2242135168     4.0597574959
C     -3.1455114473     -3.2075930411     -1.3937909097
C     -4.0520447896     -2.2064076518     -1.0045978744
C     -4.3789188344     -2.1875651654     0.3798387079
C     -3.5261237777     -2.8293433435     1.3381996793
C     0.0639758511     -2.5179222395     3.4695872762
C     -1.1780923604     -2.7914278472     2.8937705028
C     -1.2170021591     -3.6589855346     1.73327492
C     -2.4365972837     -3.6386510527     0.9403515419
C     -2.3858810116     -3.9525802882     -0.4328210526
C     -4.1087976501     -0.9679119807     -1.7820781747
C     -4.7025683867     0.1472104346     -1.1479872693
C     -2.3503800899     -3.0820591212     -2.5695560527
C     -2.3104364408     -1.8574710474     -3.291914632
C     -3.1395651111     -0.7416597464     -2.858575533
C     -1.1118153601     -1.593621899     -4.0101575718
C     -1.1667517417     -3.8827976337     -2.3951174959
C     1.2540103047     -3.8686820122     -2.367178706
C     0.0472548535     -3.5466719208     -3.0419953764
C     0.0511970857     -2.4229587592     -3.8929576693
C     0.0242021516     -4.477862484     -0.2934852714
C     -1.1659911364     -4.3705296143     -1.0478637121
C     3.598971906     -2.907095228     1.4045244548
C     2.5271883809     -3.7433182879     0.9789215564
C     2.4627516076     -3.9730531527     -0.4041399378
C     1.2377964926     -4.3709355963     -1.0353806238
C     0.0184792733     -4.1253173299     1.130643865
C     1.2621913655     -3.0869023651     2.9725861865
C     1.2856777694     -3.8171163051     1.7654294325
C     -0.6691394405     -0.2589200608     -4.2198699475
C     -1.4187030727     0.844524922     -3.8096254759
C     -2.7136954691     0.608234936     -3.1689792053
C     -3.3047501698     1.7091805256     -2.4449768939
C     -4.2698650903     1.4676556106     -1.4422425002
C     -2.6035468303     2.9282125888     -2.3309329719
C     0.7856322151     2.1003046809     -3.6406631043
C     -0.6824662937     2.0916857267     -3.637892883
C     -1.348186948     3.1366972928     -2.9693111768
C     1.4463961106     3.1696404655     -2.9883970674
C     0.7168927218     4.1469500125     -2.2143470905
C     -0.6381933946     4.1160195629     -2.1891167757
C     2.4463421609     -3.0607994187     -2.5272750873
C     2.4056658365     -1.8340357166     -3.2320429784
C     1.2174003649     -1.5745430723     -3.9778967348
C     0.7811023677     -0.2549473136     -4.2035681928
C     2.802042619     0.6467734953     -3.1184737292
C     1.5238049939     0.8662435926     -3.7855251363
C     4.1439017151     -0.9245131044     -1.6824710858
C     3.2196353398     -0.707473177     -2.7846204667
C     4.6929884808     0.2088805936     -1.0229750575
C     4.3099877587     1.5182874569     -1.3556189479
C     3.3843314059     1.7655133431     -2.404214364
C     2.7001162859     3.0010444265     -2.3581281841
C     4.7682029863     -0.9252451787     1.1428685708
C     4.375421482     -2.1530305212     0.4803944831
C     4.0915236263     -2.1656335309     -0.9166100293
C     3.2186714989     -3.1879006787     -1.3385497897
C     4.9729466604     0.2019515633     0.4043953266
C     2.3421393994     -2.2018940394     3.3626519074
C     4.1362434685     -0.8532671325     2.4462323915
C     3.4870020954     -2.1177387743     2.6188629959
C     3.0304152981     2.6834203072     2.3321119588
C     4.6247831655     1.4862722354     0.9573602384
C     3.8917670644     1.5757241932     2.1871189927
C     3.5696471014     0.3524198253     2.9207222777
C     2.318215068     0.2719978375     3.6811887049
C     1.7822665898     -1.0096229503     3.9370772548
C     2.7090709335     3.8298967265     -1.1402518704
C     4.3183012763     2.3329146735     -0.1385705412
C     3.4451924141     3.4328186534     0.0065938668
C     2.8467813102     3.643638278     1.2784147887


