100

 C     -2.4747914875     -3.9145218906     0.7180148896
C     -3.5412035032     -3.2138075362     0.1323434119
C     0.2039044251     -4.5985669793     1.4595958848
C     -0.2273129084     -4.8637221477     0.1882983374
C     -1.5852081953     -4.592374154     -0.1829698769
C     1.556055146     -4.2192844282     1.6883633218
C     0.6413628179     -4.5777502303     -0.9289851678
C     1.9220318961     -4.0104192323     -0.74636039
C     2.4371727182     -3.899909569     0.6177111947
C     4.1015991456     -2.2684265314     -0.1637682845
C     3.5279585259     -2.9754453642     0.9104322567
C     3.6004713956     -2.3435341306     2.1989572185
C     -1.5791795307     -4.287546165     -1.5702264486
C     -2.5834045305     -3.4525424308     -2.1351458889
C     -3.6059429547     -2.9723974375     -1.2798356081
C     -2.2138637137     -2.645541764     -3.2269312183
C     -0.1945867364     -4.2311396778     -2.0270696148
C     3.5247016239     -2.3169228402     -1.4829990151
C     2.3932606565     -3.1003531514     -1.783275985
C     1.5267906451     -2.6515911526     -2.8615278591
C     0.2114412047     -3.2745639393     -2.9855989538
C     -0.8335854013     -2.5840367161     -3.6640881028
C     -2.7931603094     -1.3507834415     -3.4141142481
C     -3.6974725345     -0.7817969105     -2.4797593051
C     -4.1776490699     -1.6641329919     -1.4704814675
C     -3.6562926313     0.6611064233     -2.2104047154
C     -4.2655118597     1.1555320723     -0.9825546701
C     -3.9713526434     2.4724158653     -0.570802981
C     -1.8154727806     -0.5348589743     -4.0523658173
C     -0.5271321666     1.4594115465     -4.138401142
C     -1.7719719309     0.8474457809     -3.8414323363
C     -2.683129111     1.4799508622     -2.8989981885
C     -2.283120457     2.7660684417     -2.3473521807
C     -2.9590863893     3.2420084499     -1.21983953
C     3.766158447     -1.0665945232     -2.1124018614
C     2.8834653422     -0.52884601     -3.0578039774
C     1.7675878504     -1.3609174032     -3.4872110084
C     0.6711852365     -0.7076935467     -4.1762419431
C     -0.6062415169     -1.3118197947     -4.2175421179
C     0.6738041825     0.6922621505     -4.3250745434
C     -4.682584937     0.2156403082     0.0598865505
C     -4.5781019388     -1.1667016177     -0.1954763549
C     -4.0014056116     2.8757193816     0.8227600949
C     -4.2503931038     1.9282164596     1.8002487171
C     -4.5892732783     0.5920491225     1.4217213659
C     -2.9601309773     3.8578387564     1.0264423512
C     -3.4046535559     1.8621301611     2.9807769339
C     -2.4041654414     2.7861472947     3.1667748426
C     -2.1940270658     3.8398862738     2.1941724318
C     -0.9454831541     4.3971809417     -0.3151850685
C     -2.3133105985     4.0882756997     -0.2254702427
C     -0.7946109018     4.0930590673     2.1228476817
C     -0.1533708912     4.4203754837     0.9130615613
C     -0.3022680151     4.1518767678     -1.591788799
C     -0.1705757859     2.7324317312     -3.5957870299
C     -0.9726456613     3.3499300046     -2.6184446226
C     1.10043654     4.2542905322     -1.6185187503
C     -3.970618134     -0.299698811     2.3759424195
C     -3.6281937148     -1.6207408982     2.042863137
C     -4.1226299717     -2.0885112674     0.7996312131
C     -2.4434545375     -2.2210183551     2.6235042221
C     -1.9511445344     -3.4449955928     2.0128895897
C     -0.67094445     -3.8734910093     2.3870194301
C     -0.2081797291     -1.8102377866     3.6802215858
C     0.1648178997     -3.0981621905     3.230778084
C     -3.1575081874     0.4731784438     3.2673119449
C     -1.1204890287     2.347145178     3.6467464895
C     -0.8293656491     0.982497045     3.8904578535
C     -1.8950965881     -0.0004630912     3.6873853394
C     -1.5647361205     -1.3940398509     3.4317222596
C     2.1979601614     -1.2334577284     3.7200044645
C     2.5251167781     -2.5106602209     3.1399871284
C     0.5605508229     0.586602751     3.8792201967
C     0.8566665296     -0.8270552293     3.9192775279
C     1.5377040359     -3.410694873     2.8797168412
C     -0.1378592838     3.2085698079     3.072573073
C     1.1969511501     2.8233671051     2.9374818131
C     1.5865675862     1.5300796747     3.4677891516
C     3.7158758793     1.7787569931     2.2324816711
C     2.9115830166     1.0503388361     3.1463038915
C     3.1961095755     -0.3252116958     3.2790014276
C     3.146767588     3.6715161223     -0.6863213693
C     1.882325043     4.311037853     -0.4104942345
C     1.2823381556     4.2383373573     0.8615673534
C     3.8311914721     3.0552108181     0.3231087799
C     3.2596688722     2.9890408784     1.640606191
C     1.9742557658     3.496952557     1.9136275656
C     1.2604858711     2.792407221     -3.5549224496
C     3.1081908071     3.0894159167     -2.0146065515
C     1.8905996394     3.552166145     -2.6022366846
C     4.5215300179     -0.2344155575     -1.1923807805
C     4.5477013559     1.8297496501     0.0594233849
C     4.4074214657     1.1711589103     -1.2018091146
C     3.6014407063     1.7866550598     -2.2567010266
C     2.8738047982     0.9324593061     -3.208798887
C     1.7811987437     1.4938351385     -3.8864945781
C     4.0834461607     -1.0166727019     2.3575247662
C     4.5737566421     1.0921126336     1.2759065695
C     4.6726438951     -0.319342486     1.274716636
C     4.7114749749     -0.9757089523     0.0104999441


