100

 C     2.4191941336     3.6132284159     -0.7101611179
C     3.4813260778     2.9869774288     -1.3804913772
C     4.558242634     2.3625437777     -0.6825574449
C     2.420236651     3.6056575746     0.7540392755
C     3.4832910958     2.9725531334     1.4163630457
C     4.5592427913     2.3553615606     0.7105001946
C     0.0919996161     4.2618143829     0.7545467789
C     1.1616451949     3.7509102047     1.4824227927
C     0.8820860831     2.9930523635     2.6988999166
C     1.9504613385     2.1706084089     3.2223293646
C     3.2273288185     2.1963871242     2.6201402444
C     1.627064483     0.9900151776     3.9289571615
C     -1.2519859567     4.1251630947     1.1859527495
C     -2.8603481789     2.7752905606     2.3714692594
C     -1.5609622441     3.334396929     2.3260650251
C     -0.4854708098     2.6935971754     3.0520521703
C     -0.7951511421     1.448614284     3.7648929066
C     0.264755267     0.6239477838     4.145092945
C     5.2508190694     0.012554634     -0.7281659548
C     5.2518148898     0.0050352054     0.7308804901
C     4.9160953819     1.164266969     -1.4099345757
C     4.918095249     1.1496617013     1.4249630585
C     4.0650934356     1.0413879642     2.5888788916
C     3.5780867614     -0.2275974345     3.0264540161
C     2.390331614     -0.2021427974     3.7722119116
C     3.7279640018     -3.1359703646     -0.0138112325
C     4.7696307463     -1.2798610807     -1.1829977854
C     4.6198567421     -2.0922584885     -0.0090535397
C     3.8829865818     -1.4362329342     2.2667022791
C     4.7712404112     -1.2920099823     1.1730135888
C     2.9351319762     -3.4114449191     1.1477650426
C     2.9072612207     -2.5411062427     2.2477952248
C     2.9334962315     -3.3994223105     -1.177061482
C     2.9041048959     -2.5177766912     -2.267991901
C     3.8798322719     -1.4127675798     -2.2768763085
C     3.5738630966     -0.1963598121     -3.0236526609
C     4.0615005848     1.0679990486     -2.5737172486
C     2.3849783862     -0.1632087431     -3.7674070274
C     1.7441339911     -4.0718002075     -0.7308210832
C     -0.6089005947     -4.3912640043     -0.7359540165
C     0.5361250374     -4.028280414     -1.464208112
C     0.4355439064     -3.1471434044     -2.6147537257
C     1.6358009028     -2.4193919135     -3.012392619
C     1.4588919154     -1.2782394373     -3.8039102862
C     1.4643102655     -1.3174866405     3.798594389
C     1.6400471451     -2.4504572348     2.9950193495
C     0.4392834616     -3.1740062909     2.5916905797
C     0.5381638715     -4.0432188766     1.4318129479
C     1.7451434609     -4.0791486157     0.6962669117
C     -0.6078311687     -4.3986126922     0.7015676388
C     1.621476193     1.0304204697     -3.9105954343
C     1.9459078938     2.2036747099     -3.1923498644
C     3.2236420279     2.2232849155     -2.591828069
C     0.878271988     3.0206795067     -2.6588304598
C     1.1595836873     3.7659034428     -1.4351767491
C     0.0909041802     4.2693207651     -0.7004373504
C     0.2587617229     0.666533913     -4.1284656321
C     -0.800637013     1.4872672455     -3.7382045171
C     -0.4898928737     2.7248285021     -3.0130204309
C     -2.8637411913     2.7992931023     -2.3280220523
C     -1.5642130411     3.358051321     -2.2788325915
C     -1.2535658815     4.137074157     -1.1311939442
C     -3.348015759     -1.1892983316     -3.038557319
C     -2.2063797392     -0.6021888796     -3.6407321619
C     -2.101049756     0.8474931069     -3.6405647619
C     -3.1430034963     1.5983713012     -3.0384137823
C     -1.9126139715     -4.0212319082     -1.1686947622
C     -2.066425777     -3.1752583144     -2.2968037548
C     -0.8837497907     -2.678737426     -2.9986408699
C     -1.0114701796     -1.4222524684     -3.7122349452
C     0.1655436938     -0.7702661269     -4.1002024266
C     -3.2688242996     -2.4275641818     -2.3539119144
C     -3.7770133986     2.8857270428     -1.1912234331
C     -3.3478470883     3.4822728177     0.0257577301
C     -2.1003868717     4.1404506737     0.0281827334
C     -3.7751423885     2.8733237827     1.2372167113
C     -4.6018051144     1.7303700525     -1.1902819918
C     -4.9764259989     1.0684283406     0.014662077
C     -4.600105468     1.7178382998     1.2256697417
C     -4.8363107741     -1.1063416393     -1.2068050613
C     -4.3515739225     -0.3959263308     -2.3780043485
C     -4.2488060076     0.9671387688     -2.3808594982
C     -4.8345402718     -1.118780395     1.2131911577
C     -5.099350658     -0.4088855634     0.00710964
C     -2.7541537021     -3.9044413844     -0.0128997361
C     -4.1924063229     -2.386078862     1.2091738587
C     -3.8742743467     -3.0430788816     -0.0075577322
C     -4.1942263124     -2.3733906899     -1.2169009319
C     0.1714809895     -0.8126691015     4.102025271
C     -1.006061634     -1.4606198825     3.709142062
C     -0.8794176278     -2.7096394836     2.9823956031
C     -3.2654420428     -2.4519932979     2.3439409016
C     -2.0632010807     -3.1988961787     2.2772834811
C     -1.9110378848     -4.033108264     1.1400755735
C     -4.245415222     0.9425021331     2.4077812589
C     -3.1385976504     1.5668012355     3.0699763074
C     -2.095813126     0.8098658919     3.6626087698
C     -4.3481830222     -0.42060944     2.391028963
C     -3.3436742027     -1.2206194334     3.0416751862
C     -2.2011690624     -0.6398548231     3.6479588477


