100

 C     4.6560525239     -1.5565366829     1.6653972411
C     4.6599836258     -2.3727484439     0.4489260016
C     4.9343333915     -0.2126626675     1.5888386743
C     4.9018743899     -1.7769989486     -0.7736312983
C     4.0543496666     -2.1022092377     -1.8884526602
C     1.8805158379     -3.6772577138     2.2276354201
C     3.6010303321     -2.0107422546     2.5172573965
C     3.1185966446     -3.2226463746     1.9204795397
C     1.8299434767     -1.6297973594     -3.5326855333
C     1.7650063614     -2.7090566766     -2.6256485977
C     2.9164853172     -2.9483638913     -1.7575832397
C     2.7045486448     -3.6252717216     -0.4912423361
C     3.6132866963     -3.3400430881     0.5677200459
C     1.0630120592     -4.2936877431     1.2220431465
C     1.3713317252     -4.1280039095     -0.1538797982
C     1.0313615992     -2.9127634299     3.1059106873
C     1.3290144256     -1.5692779543     3.4262746495
C     2.6860019924     -1.1076701611     3.1459266952
C     2.9428519907     0.3085133583     3.0228283126
C     4.1090588376     0.7183467688     2.3117212429
C     0.5051561438     0.7936537541     3.5002383325
C     1.85393245     1.25999681     3.1889321179
C     2.0490686069     2.6028783468     2.6739321525
C     0.940739493     3.4620614566     2.6254701406
C     -0.2926015374     -3.3328751569     2.8454551876
C     -2.5886520011     -2.8977299094     2.4683661897
C     -1.3885527705     -2.4879193969     3.0856510215
C     -1.1557275689     -1.0971736484     3.4281387805
C     0.218023368     -0.6290330262     3.5642288273
C     -2.2594123441     -0.1696935402     3.2249665091
C     -0.6116685829     1.7099529152     3.4230351926
C     -0.3383392738     3.0556641582     3.0529130767
C     -1.3671897725     -4.302216949     0.8401399392
C     -0.2722661688     -4.2100519567     1.7036338732
C     -2.589536425     -3.8344909718     1.3771572264
C     -1.1034410919     -4.2198184616     -0.5915047009
C     -2.1960430997     -3.8265705994     -1.3881815098
C     -0.712418627     -2.6044662469     -2.9306478674
C     0.4434878927     -3.2090138233     -2.2828527314
C     0.2531853912     -3.9811403591     -1.0773761625
C     -1.9956338971     -2.9758966166     -2.5162341123
C     3.1409120173     2.9049182923     1.7514481864
C     4.142216594     1.950816515     1.5814528605
C     0.7674830813     4.4293326368     1.5360337609
C     1.6781024347     4.4698176323     0.5133418457
C     2.9148073543     3.7681975919     0.6399410622
C     -0.6200854731     4.5468093239     1.2485506018
C     1.2205199509     4.3831171627     -0.8505693288
C     -0.1461632199     4.2882905041     -1.1569767263
C     -1.1196012709     4.479092137     -0.0739274561
C     -2.5688275202     3.3962596628     2.1496071733
C     -1.3022963622     3.8440811022     2.3160545412
C     -3.2530074196     3.6009708693     0.8989237533
C     -2.5008106074     4.0276591162     -0.2457317869
C     -2.8581952874     3.4662730356     -1.4893049526
C     -3.6760807496     -1.9892944471     2.2873790407
C     -3.5258749812     -0.6264344862     2.6263686481
C     -1.9812456487     1.2332531403     3.2711537812
C     -2.9589151067     2.1282489422     2.7193896499
C     3.318444347     3.3708899685     -0.6683012812
C     4.2101898177     2.2946435244     -0.870662995
C     4.7738839155     1.7267276884     0.3057619731
C     5.2873741143     0.3922945922     0.3147620295
C     5.2436168368     -0.3604431032     -0.8484988536
C     2.8656652461     1.709198557     -2.9082373472
C     4.0441000417     1.4773834594     -2.0585156067
C     4.6346357078     0.185471878     -2.0391357142
C     2.3906895711     0.6309544384     -3.6647938499
C     2.9192475404     -0.6959726789     -3.5138799737
C     4.0077903584     -0.9199156984     -2.7136563379
C     2.2304904996     3.6685855764     -1.5783409609
C     -1.8562761474     3.1522527656     -2.4842588195
C     -0.4930103878     3.483154092     -2.3164223752
C     0.4981175604     2.6727583007     -2.9923394917
C     1.9030863578     2.7752287787     -2.6118078292
C     0.0439957992     1.4705943989     -3.6685152693
C     0.9972787655     0.493213562     -3.9818030197
C     -3.5518052554     1.5715637009     -2.6336259605
C     -2.2767039489     1.970040966     -3.1528362243
C     -1.3370609457     1.0343174502     -3.6315123274
C     -4.8585684377     -0.1650674339     -1.575128252
C     -3.9364756683     0.2165069386     -2.5992446212
C     -1.6907825252     -0.3702342749     -3.6108339616
C     -4.2191767195     2.5659080568     0.8094956168
C     -5.0862325735     0.6948383833     -0.459364418
C     -4.5998078014     2.0263142882     -0.4442950754
C     -3.9091732503     2.4940744704     -1.5967913178
C     -4.4381920464     -2.4224176968     1.1450714825
C     -5.0784961605     -1.4843169873     0.3469966265
C     -5.1041256794     -0.1235539818     0.7488731744
C     -4.3805929254     0.3067373392     1.8981882349
C     -4.0534315912     1.6767901214     1.959199382
C     -4.0954248238     -2.4810426518     -1.6654190199
C     -3.5010225318     -3.5216021182     -0.8415275096
C     -3.7015154668     -3.5063565588     0.5313494216
C     -4.9117292026     -1.525221935     -1.0978227067
C     0.6652832415     -0.8908115867     -3.9325637866
C     -0.6211271342     -1.3397747975     -3.6311367208
C     -2.9949723355     -0.7780463273     -3.117493113
C     -3.1350236712     -2.1108128433     -2.6828249291


