100

 C     4.7809641807     -1.0554598813     -0.0457244435
C     4.3849194246     -1.5828740321     1.2101672127
C     4.1323993462     0.0900966079     -2.5636320189
C     4.0954697505     -1.2634075401     -2.4258014806
C     4.4834451476     -1.8750362801     -1.1694035989
C     3.0369706861     0.7746787704     -3.2171362579
C     -0.6595878765     -1.3438505172     -3.4705451444
C     -0.6683192559     0.0968952572     -3.6043730911
C     1.8425446845     0.0979740147     -3.5771806659
C     1.8521491265     -1.3564581597     -3.5082193205
C     3.017657806     -2.0045989574     -3.0141807743
C     0.6040912759     2.2302533279     -3.1552908654
C     0.5982719311     0.839990019     -3.5587190198
C     -3.0783532514     2.7346703443     -2.4204940865
C     -1.9213871843     2.2188379417     -3.0709372691
C     -1.914651525     0.8126722848     -3.4452505758
C     -3.1017543971     0.0651814941     -3.2088211246
C     2.9221932721     -3.2087365183     -2.2492333349
C     3.7328814589     -3.0863496108     -1.0523402635
C     3.2011668862     -3.5160346651     0.1930654
C     3.5930307576     -2.7600633438     1.3191949857
C     1.7422921933     -3.8950353188     -2.2073855867
C     -1.8518567653     -2.0295173501     -2.9913055037
C     0.5943036466     -2.0698127226     -3.4317117345
C     0.5907109166     -3.3772759609     -2.8908034379
C     -3.0393134889     -1.3149596941     -2.8911821702
C     1.3062785875     -4.543670219     -0.9827566262
C     1.9263640545     -4.2285258822     0.2497331169
C     2.7015461635     -2.5901382654     2.4518208464
C     2.9987450038     -1.3314887183     3.0594208515
C     -0.1054478191     -4.6858649054     -1.092537946
C     -0.8878236827     -4.7284355649     0.0424511294
C     -0.2872708449     -4.4412871421     1.3143234521
C     1.0637289696     -4.0927835696     1.4340772653
C     1.4232795102     -3.1427146091     2.4997603555
C     0.3832347689     -2.4344083456     3.2608833279
C     1.9798432767     -0.5795261074     3.6855370818
C     2.1761244911     0.8159579745     3.7297141586
C     -1.7818875463     -3.2573129621     -2.2122888451
C     -0.5652084954     -3.9306309627     -2.228832915
C     -2.2091920194     -4.189525171     0.0252506046
C     -2.6911456239     -3.4625336714     -1.0759675767
C     4.040003215     -0.7047296613     2.3089035163
C     3.2579381519     1.4394948488     3.0530910104
C     4.141160489     0.6942688423     2.2070901786
C     2.8188139122     2.7654984982     2.6942658474
C     3.3046486972     3.3418051769     1.5517073427
C     0.1745166111     4.6462812446     0.0862086417
C     2.4115128201     4.1502630317     0.7542653943
C     1.0519759886     4.3418145831     1.1343267503
C     -0.2703990045     1.2713416163     3.7267598643
C     1.0470680594     1.7332463097     3.7266569467
C     1.4251822331     2.9243351739     3.0745559898
C     -0.9026348994     3.2543258508     2.3315089871
C     0.4969522925     3.6494048198     2.2928416957
C     -1.2962149966     2.0955081265     3.1000591654
C     -1.314371036     -3.8411613194     2.13848791
C     -0.9907898979     -2.854053874     3.1004942581
C     0.6457928076     -1.1133931106     3.7689689552
C     -2.0382494544     -1.9765440213     3.455248004
C     -1.7540179645     -0.6257594229     3.8398192712
C     -0.4558770956     -0.1608711187     3.9384716195
C     4.221424641     2.6179446107     0.6838567302
C     4.6017769298     1.279642457     0.9413810367
C     4.8724079058     0.402689536     -0.2009310328
C     3.9165040047     3.066526998     -0.6414546817
C     4.0638942458     2.2133120411     -1.7082823561
C     4.6426573654     0.924640829     -1.5022652797
C     2.7762795481     3.9504247978     -0.6098173357
C     1.7878646733     3.885219699     -1.6293722323
C     0.5382663043     4.3942661482     -1.2772085329
C     1.8330602407     2.8381341182     -2.6515943318
C     3.0222941185     2.1035799123     -2.7272725526
C     -0.6556853042     2.9040673501     -2.8708849148
C     -0.6384265211     4.0195600362     -2.0000745169
C     -1.740065756     4.2789693502     -1.1250048129
C     -3.7238918471     3.2352179186     -0.2146731969
C     -2.9362005429     3.6679810697     -1.3380256203
C     -3.8276970212     -0.6420717353     2.8497800068
C     -2.8411017838     0.2262357815     3.4201681609
C     -2.6287676132     1.531787593     2.9344322039
C     -4.6676996305     -0.1864964862     1.8662642277
C     -4.6040870435     1.1938997968     1.4720919996
C     -3.5585298553     2.047648068     1.9339775452
C     -3.1241186483     3.1320414184     1.0734189158
C     -1.8117900914     3.745889822     1.2885782107
C     -1.2383088873     4.4565290588     0.2131814157
C     -2.5134206967     -3.7501668294     1.3752926737
C     -3.5008486855     -2.7724851108     1.6254112135
C     -3.2983356842     -1.9800859528     2.7816497768
C     -4.8002052482     -0.4261348014     -1.6633070951
C     -4.055356899     -1.620720172     -1.8843745073
C     -3.7989728664     -2.54428243     -0.8560846098
C     -5.2335982068     -0.1160269511     -0.3741797779
C     -4.9507830289     -1.0129661331     0.7002249248
C     -4.2546880537     -2.2307256782     0.4968243936
C     -4.6239430992     2.2397430308     -0.7213024309
C     -4.2065176224     1.9136884229     -2.0831042631
C     -4.2434011527     0.609561518     -2.5124911603
C     -5.084286657     1.2486239152     0.1145763464


