100

 C     1.0958175284     4.0385390943     0.6393217552
C     0.2104022204     3.5506232253     1.6023472585
C     -1.2176869267     3.4983820742     1.2643338471
C     -2.108799968     2.8394693852     2.1867024057
C     -3.4605543262     2.6590924853     1.8155511728
C     -4.2752227536     1.6019412066     2.3697878528
C     -1.5482907443     1.9563053967     3.1988586984
C     -2.3487347269     0.9085421475     3.6868018996
C     -3.7014087677     0.7101883292     3.2626351598
C     0.405821671     0.5805773391     3.8632643798
C     1.7744078082     0.3791965753     3.9015459246
C     2.2119582359     2.4880045974     2.7378878638
C     0.7741693785     2.7220471492     2.677357865
C     -0.1128792016     1.8294112539     3.3561780561
C     2.6874133526     1.3658145617     3.4608775747
C     2.4967540881     3.7082564396     0.6392144706
C     4.3013061791     2.3136743292     1.3674703333
C     3.0912605727     2.9893314088     1.6898288222
C     -5.4002429694     -0.2541491825     1.2091394824
C     -4.7370879705     -1.1821498553     2.101407555
C     -5.173363032     1.1214059888     1.3428195631
C     -3.9293652362     -0.7171077257     3.1211361718
C     -2.4872416325     -3.7235323172     0.6126027339
C     -4.2945234151     -2.3323407075     1.3405716761
C     -3.0856884092     -3.0094967469     1.6643137936
C     -0.4084318523     -0.6109052187     3.8589732162
C     -1.7771523579     -0.4096890094     3.8930611998
C     -2.6884952089     -1.3942380345     3.4443930482
C     -0.7723122142     -2.7468318344     2.6617534309
C     -2.2103221731     -2.5130604921     2.7179825213
C     0.1121788649     -1.8573724916     3.3480315963
C     -5.0196581579     1.3534529704     -1.0894656658
C     -5.2012824179     -0.0741165982     -1.230070592
C     -4.9559648927     1.9329555174     0.1707477293
C     -5.3773756152     -0.8586371242     -0.1038222978
C     -4.6879992686     -2.1273568969     -0.0265218314
C     -3.8742107858     -2.5872763986     -1.0986035269
C     -2.8834700807     -3.522175606     -0.7393686772
C     -2.0883603996     2.8632868244     -2.7695348385
C     -3.1801057764     2.8250885297     -1.8771004084
C     -4.1172964982     1.7947360288     -2.1160858687
C     -3.7467251401     0.6468970289     -2.9044499725
C     -1.8035187109     -0.6807616917     -3.6611304774
C     -2.5050820732     0.5742744995     -3.5676208671
C     -1.7695814601     1.7823314933     -3.6275080021
C     0.3700629573     -1.7993439939     -3.844634556
C     -0.366864103     -0.6332551029     -3.9851938742
C     -3.6371380128     -1.7314037913     -2.2723282853
C     -4.3402898272     -0.5164515154     -2.3129600159
C     -1.7438919817     -3.7572160828     -1.5745636928
C     -1.5070556263     -2.9621218665     -2.7234251386
C     -2.3771280313     -1.8406941655     -3.0184392522
C     -0.1742255561     -2.9475611161     -3.1776915441
C     -2.9872673659     3.3241222084     -0.5113499853
C     -3.890509233     2.8834989053     0.4651936938
C     -0.8708205707     3.5416072582     -2.42493139
C     -0.6645863     4.0068772039     -1.1066684403
C     -1.6638187757     3.7565593661     -0.0823607143
C     0.6776619047     4.179981627     -0.7286454682
C     0.1979650011     2.9499414827     -3.1632842038
C     2.4002681912     1.8423250991     -3.0009265535
C     1.5290819313     2.9623767311     -2.7039640153
C     1.76160603     3.7521148418     -1.5505410092
C     4.3607839524     0.5147955262     -2.2942620699
C     3.6574757067     1.7295533471     -2.2506142198
C     0.3936536913     0.639409554     -3.9808132247
C     -0.3438033785     1.8048368897     -3.8375955869
C     1.7950424134     -1.7778245695     -3.6291069855
C     2.5303023272     -0.5700663816     -3.5608475566
C     1.8290874944     0.6853983401     -3.6511488416
C     3.7694509904     -0.6457859336     -2.8933750849
C     3.8901397134     2.5799580334     -1.0720462152
C     2.8980525087     3.5131863307     -0.7121873466
C     4.6999036543     2.1150480089     0.0009311334
C     5.0355781744     -1.3607863135     -1.076936953
C     5.2177143562     0.0674187461     -1.210219201
C     5.3895773485     0.8466922117     -0.0796857809
C     4.9671730936     -1.9461430738     0.1803229596
C     2.110609477     -2.8627665926     -2.7749828385
C     3.1990036207     -2.8287295001     -1.8782918331
C     4.1370750896     -1.7972869703     -2.1089717284
C     -0.6630318623     -4.1889092379     -0.7506126612
C     1.6760076446     -3.7685137491     -0.0935996907
C     0.6806210811     -4.0140600237     -1.1227972341
C     0.8917905615     -3.5426691592     -2.4380988987
C     3.9006282059     -2.8980366266     0.4663502712
C     3.0010542413     -3.3341030619     -0.5156098256
C     3.7010263217     -0.7377530065     3.2731372626
C     2.3467736409     -0.9380659143     3.6913064624
C     1.5481743187     -1.9835409279     3.1955018309
C     4.2781945786     -1.6253517811     2.3783156221
C     3.465612889     -2.6799058887     1.8161198765
C     2.1124789888     -2.8619919498     2.1813574688
C     1.2248311557     -3.5165967164     1.2525974976
C     -0.2045156548     -3.5704032417     1.5850185864
C     -1.0863107169     -4.053825041     0.616424299
C     5.4075303472     0.2361097528     1.2305291636
C     4.7410267334     1.1599544973     2.1246087541
C     3.9294938349     0.6901827686     3.1391289462
C     5.180168089     -1.140053383     1.356962056


