100

 C     5.1316785267     -1.3937962546     -0.464122788
C     4.6434436446     -1.4358599058     -1.8314048529
C     5.3802742137     -0.1800216915     0.1497523983
C     4.4885997681     -0.2611161699     -2.5473381077
C     3.3517008277     -0.1041089592     -3.3891567254
C     2.9557344278     -3.0168056392     2.0483959867
C     4.015179561     -2.2042740252     1.6090819501
C     4.4698360488     -2.4286262177     0.2756808676
C     3.6411997118     -3.1486746986     -0.647073738
C     2.5295671883     -3.8711346471     -0.2305600524
C     2.3331495726     -3.9506726174     1.1859459537
C     0.0392808832     -4.6021719235     0.8670417609
C     1.0284103105     -4.2085525952     1.7114684554
C     0.7890783734     0.7936820921     -4.033976771
C     0.9465622076     -0.5923055849     -3.7640389616
C     2.2870409197     -1.0559537484     -3.421167856
C     2.4336889996     -2.2706683878     -2.6477584491
C     3.6384807544     -2.4521768851     -1.9162577499
C     -0.0683477659     -2.6245916852     -2.703755548
C     1.2501260095     -3.0341251689     -2.2580974736
C     1.3771003363     -3.9448592615     -1.1270071129
C     0.2104945798     -4.4920752513     -0.5846128394
C     4.1624836798     -0.8943511414     2.2157843601
C     4.9388429668     0.0540290866     1.5096261754
C     4.6411929791     1.4558349043     1.6023537027
C     3.1084276729     -0.4140280366     3.1300326565
C     3.0031089164     0.9574573146     3.3377943328
C     3.743807143     1.8985150455     2.5335147981
C     0.7379188818     -3.2674273435     2.7713764991
C     1.9298733982     -2.5337788386     2.977183264
C     1.9010639752     -1.201891142     3.3926625576
C     -0.5499706716     -2.6907194163     2.914683002
C     -0.6337144171     -1.3114674753     3.3530331646
C     0.5894393197     -0.5869098978     3.6256371791
C     0.5329375265     0.8538623873     3.7720491534
C     1.7473887316     1.5737320186     3.6873658522
C     -3.053894466     -1.2953133904     2.6198828311
C     -1.9102622117     -0.5914821824     3.18602646
C     -1.940501588     0.8475113199     3.260978957
C     -4.182485749     -0.5392040725     2.2037289917
C     -2.9054091239     -2.6315976473     2.0512854269
C     -1.6403883212     -3.3169163386     2.1790289255
C     -3.7688122647     -3.0151224268     0.9871592098
C     -1.3134272041     -4.2936576142     1.1950753363
C     0.6099452476     3.5276311837     2.8230162753
C     2.8933205558     3.0130835776     2.2333931193
C     1.7757030652     2.8902635235     3.1222819329
C     -3.0647349946     1.593863924     2.6934183406
C     -0.7144125798     1.5695126934     3.5537791597
C     -0.6355172293     2.9347996594     3.1784239733
C     -4.174036648     0.884427265     2.2184940229
C     0.4658888864     4.1954799261     1.5524786509
C     1.4202846145     4.0348691313     0.5304109502
C     2.7299550091     3.4838673814     0.9042909896
C     3.6311247366     2.9563129873     -0.115126328
C     4.6586549218     2.0556875344     0.2882265121
C     5.2017241427     1.0602331612     -0.5937706327
C     3.1853482948     2.9168107895     -1.4995724613
C     3.8198322289     1.9851004338     -2.3685759219
C     4.7788953737     1.0227985652     -1.9092094772
C     3.0680933615     1.3141717038     -3.4030540973
C     1.8250542608     1.7430107656     -3.7168223896
C     0.9351092787     3.9315266605     -0.8499558873
C     1.8327490938     3.3831640734     -1.8431496398
C     1.2454768544     2.8623462886     -3.0233868178
C     -0.9362777411     4.2430931752     1.2860925005
C     -2.7930255101     3.8493389648     -0.1603067019
C     -1.4288282508     4.2054164402     -0.0291116479
C     -0.4964647963     3.9732658933     -1.1129717198
C     -1.0477704503     3.3110177569     -2.2827710336
C     -0.1556654447     2.7386331697     -3.1747076889
C     -2.8537175352     2.9240239459     2.1240209267
C     -1.6204124909     3.5312327551     2.3273844814
C     -3.5350638367     3.3138327058     0.936781141
C     -4.4918438503     2.4953157151     -1.0303465913
C     -3.3208914876     3.2473188326     -1.369348929
C     -2.4191781035     2.8120717698     -2.346330463
C     -4.8007227674     1.3342356556     -1.7293812014
C     -3.8711537129     0.8486369647     -2.7133389667
C     -2.6966216941     1.5360884532     -3.0153632542
C     -5.4379230766     0.2111647912     0.3570837476
C     -4.9771325123     1.363759524     1.0910068438
C     -4.6032653612     2.5092668733     0.4134747628
C     -5.3561370435     0.1963969826     -1.0419402957
C     -4.6655052948     -2.1609833188     -1.003017456
C     -4.764512114     -2.1374965692     0.4550594696
C     -5.0385033377     -0.9586223583     1.1076044466
C     -4.860706472     -0.9920544849     -1.7133401567
C     -2.0194691083     -4.3222301586     -0.0456775595
C     -3.595692545     -3.0375318732     -1.3560811464
C     -3.2301179042     -3.7256757857     -0.1427315669
C     -0.4320936068     1.4489796228     -3.8090729628
C     -1.6025231999     0.7486674155     -3.555297319
C     -1.5283288137     -0.6948192745     -3.4229930927
C     -0.2316853004     -1.3462357031     -3.4088921892
C     -3.8833220228     -0.6036944293     -2.6938416628
C     -2.7128288479     -1.3713295969     -2.9263106025
C     -2.5773001445     -2.6577028413     -2.2759396663
C     -1.2485768778     -3.2612407428     -2.154867067
C     -1.061615492     -4.2245173866     -1.1313688357


