100

 C     -1.4163568252     -3.4901337066     2.5522356493
C     -1.9177315493     -2.2472240127     3.0076917718
C     -3.2012710384     -1.7790774754     2.4863796342
C     -3.5253210477     -0.3641134463     2.5465708651
C     -4.5085045946     0.1289123344     1.652080605
C     -1.340854762     0.0878476523     3.7110093909
C     -2.5794170511     0.5827635906     3.1401549815
C     -2.7027560192     1.9964825269     2.8122295467
C     -1.6241185274     2.8664930495     3.1084815996
C     0.4266865507     -1.7152800892     3.6783317513
C     -0.9739363941     -1.3225434356     3.5893371877
C     1.3943282301     -0.7413943781     4.0079408719
C     1.0424832235     0.6027838475     4.1915293576
C     -0.2957492294     1.0359589301     4.0354575196
C     -0.4468825752     2.3974645134     3.6987606178
C     0.9390619326     -2.9002571816     3.0209128422
C     2.2888801336     -2.9141360216     2.4290074599
C     -0.0197765705     -3.7884056972     2.5142688987
C     2.51049138     -3.7188204714     1.2959622656
C     -3.5850872618     2.424735175     1.7319934332
C     -4.4456098043     1.4873699237     1.1585415478
C     -1.2466845086     3.9685212182     2.2254470737
C     -1.9960288297     4.245343502     1.1218320521
C     -3.2025086842     3.5028688589     0.8786767155
C     0.5997418363     4.2717874026     -1.4917109653
C     -1.3413620895     4.5535930765     -0.1294419889
C     0.081329244     4.5691027972     -0.2189895728
C     0.196890707     4.0558518027     2.1792819414
C     3.8960065442     2.1139326507     1.6547323125
C     2.7886602348     2.9487932505     1.8978136109
C     2.2129154105     3.6858991262     0.7819124491
C     0.9017010286     4.2749789165     0.9442975413
C     2.731962244     3.426185405     -0.568486453
C     1.9195325644     3.7555186226     -1.663729486
C     0.6783770481     3.1664756658     3.149834718
C     2.1741603183     1.4249987062     3.7787143639
C     1.9763073446     2.6317319523     3.0716835269
C     -3.3254430979     3.3871040315     -0.5313918924
C     -3.986975945     2.3056148372     -1.1368370802
C     -4.7292077467     1.4780830002     -0.2463832968
C     -5.1070182025     0.1400326601     -0.5997448797
C     -4.6793822631     -0.3802710237     -1.8081916592
C     -2.1554818841     3.9920976849     -1.1500986093
C     -0.2305020092     3.7155209638     -2.52336369
C     -1.5945553218     3.428587098     -2.3236456444
C     -2.1777267448     2.2141487664     -2.9057546625
C     -3.4300015332     1.7236650285     -2.3617663882
C     -3.8125492246     0.4012681325     -2.6646328053
C     -4.7054628465     -2.0101354924     0.5108017268
C     -4.3325793805     -2.5862456012     -0.779582509
C     -5.0515964028     -0.6766742916     0.5980878224
C     -4.2625904953     -1.7665411368     -1.8949335467
C     -2.0087947811     -4.1374549932     1.4004154627
C     -3.166641752     -3.6713111762     0.873521781
C     -3.3088328958     -3.5569522797     -0.5618294079
C     -3.1170828731     -1.8415469054     -2.7543000243
C     -2.0464344389     -2.7308745926     -2.5162050777
C     -2.1614947137     -3.656006432     -1.3995221901
C     0.3362606808     -4.0051143006     -1.4901846878
C     -0.9525907854     -4.242601919     -0.8458581286
C     -0.9610037683     -4.5950667986     0.5305686519
C     1.5025150864     -4.271644091     -0.7387189864
C     1.4426013137     -4.4538856465     0.6843479837
C     0.2305804646     -4.5450814901     1.3107222016
C     1.7586612592     -2.5728362901     -2.9868857595
C     0.6668236343     -0.6990615535     -4.1503777768
C     -0.6091970763     -1.1248800238     -3.7768778377
C     -0.7411078371     -2.388795861     -3.073199068
C     0.4456629149     -3.081149241     -2.6234533165
C     1.8288194253     -1.4329504854     -3.8182435659
C     0.5869645586     2.8934502781     -3.3569386665
C     0.0601926794     1.7026869048     -3.9116582701
C     -1.3163242947     1.3203116631     -3.6380725091
C     -1.6409169797     -0.0956026443     -3.7059515957
C     -2.892790376     -0.5046893727     -3.2688478816
C     1.0004862024     0.7083464033     -4.2388499542
C     -3.8644219534     -2.5798394134     1.5119247436
C     2.9135167883     -0.4767172823     -3.7345103627
C     3.9578281475     -0.6729627845     -2.8665813367
C     3.9943449825     -1.8820855838     -2.0840256385
C     2.930818414     -2.8272434895     -2.1503249357
C     2.7588967715     -3.6239265602     -1.0064407906
C     1.9284163434     2.965404216     -2.880638191
C     2.8428180812     1.921983447     -3.0924567464
C     2.3839125495     0.8464092854     -3.9103819428
C     4.9647575581     0.5485440207     0.3016172615
C     4.4024175275     1.8748065732     0.3208817895
C     3.7930048743     2.4393581341     -0.8081859611
C     4.976720341     -0.1675122448     -0.8693212799
C     4.4849926597     0.4234937214     -2.0772242888
C     3.8586059213     1.6895640007     -2.0741898614
C     3.2327663979     0.550068608     3.432809839
C     4.6540436417     -0.0988640448     1.5606676742
C     4.1064791278     0.9139949257     2.4163881882
C     3.3981477206     -3.3105797782     0.2353222023
C     4.6426521053     -1.5753554868     -0.844101906
C     4.2541942206     -2.2000063423     0.3677569927
C     4.2006572954     -1.4330816431     1.6106689902
C     3.1913484136     -1.7887288582     2.6274439485
C     2.7688309081     -0.8038458119     3.524641713


