100

 C     3.9913407085     2.6459750859     1.5265419031
C     4.6801664625     1.4867663188     1.2759673475
C     4.3655258021     0.3024438302     2.0241251922
C     3.2017451973     -2.2114633     2.4397812342
C     1.2443591041     -1.2110499331     3.5023753104
C     2.6159020806     -1.0938941336     3.0778851477
C     3.2330754501     0.2194509859     2.8797041859
C     -0.8621865831     -0.064583719     4.0277080685
C     0.5161007146     0.0261820429     3.8016079109
C     1.055402149     1.3349429691     3.4827959191
C     2.4490788023     1.4320317677     3.0870450211
C     2.9072961479     2.629852901     2.4781610716
C     4.4940196574     1.8553755348     -1.1426807759
C     3.8225304651     3.1122146308     -0.8829692848
C     4.9755855374     1.0913874324     -0.0984293429
C     3.6218797271     3.529285363     0.434917219
C     2.3951850083     4.1552347577     0.7788906722
C     1.4170255036     4.4464777596     -0.2017062388
C     0.1183112703     4.6755416363     0.2915654871
C     -1.7608482535     1.0187560993     3.7593200846
C     -1.2985388294     2.2402539837     3.2589248229
C     0.1408904021     2.4332088837     3.2044719258
C     0.6274007174     3.5619591293     2.4431835082
C     1.978586596     3.6284174624     2.0670912104
C     -0.2679760044     4.2967744622     1.6319357488
C     0.9859678069     -2.572487936     -3.5065664775
C     2.2215233481     -2.1361692975     -2.9689001466
C     4.9130920011     -0.3378569119     -0.1783152591
C     3.8281741763     1.1967101126     -2.2388878079
C     3.6667486061     -0.203574684     -2.3033210354
C     4.2825236325     -1.0178301979     -1.2542023228
C     2.5531318668     -0.7217196107     -3.0833060765
C     2.8000413652     2.0896744471     -2.6960322366
C     1.6580209828     1.6254627764     -3.3368938496
C     1.5865467588     0.20259288     -3.6451600147
C     -0.8062498001     0.5670377394     -4.1772782776
C     0.3188138025     -0.2960027778     -4.1189739827
C     0.0336472224     -1.6597977885     -4.0280600446
C     0.3737581812     3.5708664968     -2.3217907885
C     0.4639315212     2.4705259096     -3.269123509
C     -3.3133565211     3.2311160973     -1.5032699357
C     -2.1501719804     3.3324491543     -2.3274089319
C     -2.0251221306     2.3349845156     -3.301993375
C     -0.7270165572     1.924700311     -3.7773624623
C     1.5542612589     3.9144651636     -1.5497370074
C     2.7700558789     3.2569773146     -1.8489945816
C     -0.9365167767     3.9818991358     -1.8344800405
C     -1.0165842093     4.5742033471     -0.5477031794
C     2.1082493488     -4.1001384573     -1.4627789106
C     0.7818375729     -4.3954639494     -1.9244891432
C     0.2372079945     -3.6691612654     -2.9422786402
C     3.8058730452     -2.3744898568     -1.0222631522
C     2.8290738817     -2.9601764544     -1.9215883249
C     -1.9687799623     -4.3058417176     0.5433088544
C     -0.0648278232     -4.8010762229     -0.8162826016
C     -1.4348562998     -4.4141725711     -0.7604928868
C     -2.128966734     0.0963803847     -3.8666222042
C     -2.3619465191     -1.2271392781     -3.4319721474
C     -1.2976865507     -2.1266232466     -3.6666004358
C     -1.1693193903     -3.3233759066     -2.93697664
C     -3.1156004719     -2.6903717841     -1.5461488959
C     -2.0140921805     -3.6024950156     -1.8277161609
C     2.1049117721     -4.470884973     -0.0740533801
C     2.9379371253     -3.837550226     0.8017251033
C     3.8879285818     -2.8936283091     0.301322696
C     4.1905976249     -2.03163928     1.4030079844
C     4.7280834358     -0.8041423326     1.1764669005
C     0.7596484139     -4.8085108559     0.3433700717
C     0.2693884612     -4.359130892     1.604807902
C     -1.1183674142     -4.240483354     1.6948563696
C     1.1053844472     -3.5006200298     2.4614060373
C     2.4466447761     -3.3650111786     2.0955157774
C     -1.7315076205     -3.3720676965     2.6654465507
C     -0.9392914308     -2.4547469615     3.4217281792
C     0.5087032175     -2.4400919645     3.2593586083
C     -1.5860861486     -1.2894842143     3.8682228464
C     -3.0072883201     -3.0043618427     2.1706471545
C     -4.4694815573     -1.1637792823     1.6137231444
C     -3.6265514377     -1.7901345641     2.5570808287
C     -2.9276840281     -0.9601007884     3.474448569
C     -4.1170858403     -0.3928747271     -1.8777912887
C     -3.3141000879     -1.5050497167     -2.3670246743
C     -4.7367832319     -0.5183596553     -0.6088391257
C     -4.491219259     -1.6236331019     0.2290932831
C     -3.7055678349     -2.725769321     -0.210740668
C     -3.1119886644     -3.5041648527     0.8079533187
C     -4.6424484887     1.892147006     -0.1595305474
C     -4.14702424     2.08837796     -1.5193204554
C     -3.8803721691     0.9683794398     -2.3666743152
C     -2.8803798662     1.1897036905     -3.3348741901
C     -4.941552658     0.6308951544     0.2611085037
C     -2.158072288     4.345941396     0.3234427631
C     -4.0099993823     2.8361773779     0.7243160146
C     -3.2806720642     3.7194526943     -0.1297298844
C     -3.0378920115     0.4653477343     3.4059411069
C     -4.655508431     0.2471020109     1.6184345662
C     -3.8810372048     1.1058674967     2.4645378388
C     -3.4891795118     2.4224192485     1.9839858098
C     -2.2246406006     3.0150438611     2.4290849986
C     -1.6670202433     4.0457022427     1.6431648852


