100

 C     -4.5755834011     -2.2000042946     0.4813744878
C     -4.7259626352     -1.5984247678     -0.7939045349
C     -5.0044810139     -0.2006416218     -0.8610946238
C     -3.9923645614     -2.1609716256     -1.8640539088
C     -3.0748556103     -3.2438231127     -1.6513100753
C     -2.8138880962     -3.764040908     -0.3620153164
C     -3.6620671587     -3.2763456466     0.6806031012
C     -3.4389488605     -1.3251159244     -2.8995585275
C     -3.5387078468     0.0800446444     -2.8573258375
C     -4.4361820341     0.6103890453     -1.8838019096
C     -2.4203090421     0.9107910311     -3.3346301492
C     -2.355382141     2.2937321564     -2.8840508703
C     -1.1392831187     2.9702031469     -3.0437905598
C     -2.2534247337     -1.9505373161     -3.383391727
C     0.0626335798     -1.8342090951     -3.9114909479
C     -1.1839817393     -1.1861599424     -3.8895367108
C     -1.2330307221     0.2694463121     -3.8454924524
C     0.0439305333     0.9750753515     -3.8723662172
C     0.0381822049     2.3185811877     -3.4991534077
C     -1.0590693982     -4.1609749205     1.3109195994
C     -1.4429948451     -4.1951473836     -0.0506021343
C     -0.3767997216     -4.1212977161     -1.0382278156
C     -0.719618001     -3.6162813223     -2.3686962847
C     -2.0275982267     -3.144513968     -2.6188383696
C     0.2808517048     -3.0534723728     -3.1884600341
C     -3.2724991475     2.7997715381     -1.8416364289
C     -4.2784164848     1.9465387026     -1.3611011576
C     -0.7040810223     4.0154439568     -2.1223775071
C     -1.5002425666     4.3718611307     -1.0697876488
C     -2.8181149518     3.810046405     -0.9416940551
C     0.713781035     3.9339707737     -1.9601588237
C     -0.9130746987     4.5163997086     0.2415139076
C     0.4659112234     4.3266116184     0.4536759857
C     1.3295107636     4.1232206109     -0.698502808
C     4.3328724973     1.9026037643     -1.2174716265
C     3.2221565663     2.6969897729     -1.5570822331
C     2.6527310688     3.5758778441     -0.5375356499
C     3.1395327998     3.4593154857     0.7828750622
C     1.3051509806     -1.1126563119     -3.9264230357
C     1.3322625049     0.287616635     -3.8181971993
C     3.5950163573     0.0575236882     -2.7304473143
C     2.5034680271     0.897206748     -3.1957516408
C     2.386857051     2.2348738111     -2.6525234317
C     1.1854483704     2.9274298043     -2.8599264078
C     4.5170753741     0.6040219089     -1.8024720818
C     -3.0914641879     3.7162620936     0.4544722461
C     -4.0018679306     2.753239602     0.9644635391
C     -4.6843429358     1.9405568651     0.0102393966
C     -3.7200841724     2.202246269     2.2392728561
C     -1.8835089405     4.0799867157     1.1809138234
C     2.2040225801     3.4246416949     1.8822474072
C     0.8581896886     3.7551045865     1.7281753871
C     -0.1083061535     3.1102440918     2.5953229824
C     -1.5061099151     3.3552208976     2.3442130657
C     -2.4630368169     2.4729921233     2.8909632968
C     -4.111763406     0.8603858981     2.5571223001
C     -4.8070658169     0.0480456221     1.6057074103
C     -5.1003928126     0.6053803833     0.3350711199
C     -4.5759788502     -1.3626077863     1.6821192502
C     -3.0987965458     0.3007414682     3.39735361
C     -2.795433719     -1.0663487467     3.3918862474
C     -3.6587596038     -1.9071157568     2.6119209147
C     -1.8926077642     -3.540590842     2.3185787423
C     -3.1517341596     -3.1254199048     2.0226372761
C     -0.6994473972     0.9424642209     3.7128911795
C     -2.0562409289     1.2868446615     3.5649336193
C     3.3558547232     -0.2584817967     3.1930123684
C     2.051985014     0.1482253247     3.5542081839
C     1.0174221215     -0.8674169641     3.6207299347
C     -0.3558290993     -0.4795802509     3.7999893482
C     -1.4120024994     -1.4648384678     3.6425560932
C     1.3359132496     -2.1894344636     3.1192681484
C     0.2843915398     -3.0712160721     2.8730712953
C     -1.042175889     -2.7575166882     3.2032219373
C     0.2935151194     1.9270388204     3.3371534824
C     2.6325877147     2.4185414239     2.8043481372
C     1.6830951784     1.5461718295     3.3811705037
C     4.6942041569     -1.4388442616     1.6749446066
C     3.6203570067     -1.5632401306     2.6237750219
C     2.5804904829     -2.4806879211     2.4414187672
C     4.6623413747     -2.2072325374     0.5193935506
C     3.6147907921     -3.1662697203     0.3236036818
C     2.5830879522     -3.3399401831     1.2544628561
C     3.9289884223     1.9664191954     2.385897747
C     5.1003439196     -0.0532942714     1.6238785455
C     4.3085171757     0.6581772135     2.6110293488
C     4.9224209186     -1.5817703745     -0.762320227
C     5.2093206905     -0.2271014944     -0.8311904042
C     5.3621621319     0.5420747447     0.3875398619
C     4.8733373345     1.8774327842     0.1207914605
C     4.2329428448     2.5999502293     1.1158611948
C     2.3115853973     -1.9381080084     -3.348501594
C     4.0634709239     -2.1849455775     -1.7396711292
C     3.4580986922     -1.3929464889     -2.753858738
C     0.2831438953     -3.9455548522     1.6997092913
C     1.334103746     -3.9311409718     0.7874619876
C     1.0077118583     -4.0594011753     -0.6196781086
C     3.3024957541     -3.2143767296     -1.0881338078
C     2.0351034821     -3.6289307418     -1.5624375942
C     1.6512228001     -3.0936141122     -2.8083621014


