98 

C 3.70271 1.65759 -1.75678
C 4.59287 .75444 -1.15596
C 4.78985 -.57659 -1.65834
C 2.99106 1.23478 -2.94803
C 3.14029 -.09734 -3.38504
C 4.02830 -1.01146 -2.73435
C .21267 3.73754 -2.70671
C 1.53495 3.18004 -2.73520
C 1.80421 1.93988 -3.36017
C -.81821 3.08414 -3.32882
C -.56340 1.84504 -4.00559
C .70740 1.22426 -3.97026
C -1.20821 4.27125 .66662
C -1.24697 4.17874 -.73134
C -.00965 4.34293 -1.40719
C 4.39798 -2.69007 -.47388
C 3.51269 -3.09407 -1.55171
C 5.03086 -1.45280 -.52846
C 3.37058 -2.30291 -2.67476
C 2.07287 -2.16429 -3.28358
C -1.53829 -2.82607 -2.51142
C -2.78995 -2.25255 -2.79042
C -.36476 -2.26554 -3.14342
C .92826 -2.78855 -2.76792
C 1.06476 -3.56187 -1.54526
C 2.33365 -3.69473 -.97214
C .75008 -.22125 -4.02032
C 1.98241 -.83746 -3.80928
C -1.75860 1.08622 -3.96140
C -1.72268 -.33131 -3.89368
C -.45123 -1.00697 -3.82704
C -2.87087 -.96927 -3.40343
C 4.59831 -1.09929 1.87474
C 3.90656 -2.37435 1.91558
C 5.07546 -.61372 .65757
C 3.77662 -3.12493 .76602
C 2.49269 -3.70649 .45451
C -1.07774 -3.54857 1.56773
C -2.34683 -3.68332 .99601
C .07192 -3.75258 .72042
C 1.38211 -3.56894 1.29537
C 1.52686 -2.81130 2.52844
C 2.77991 -2.23855 2.80371
C -1.39539 -3.57568 -1.27302
C -.08563 -3.75770 -.69689
C -2.50606 -3.70506 -.43064
C 2.73062 1.83213 3.16861
C 3.73369 1.15129 2.44216
C 3.93158 -.21409 2.76929
C 2.86401 -.95131 3.40789
C .44447 -.98083 3.83173
C 1.71730 -.30753 3.89351
C 1.75653 1.11032 3.95093
C -1.98813 -.80539 3.81290
C -.75456 -.19066 4.01953
C -.93922 -2.76663 2.78498
C .35482 -2.24402 3.15676
C -2.08193 -2.13586 3.29677
C 4.05710 1.61852 1.11507
C 4.77175 .73318 .26957
C 2.12596 3.00393 2.66712
C 2.32819 3.41178 1.32727
C 3.28265 2.68447 .51682
C 3.16097 2.72424 -.93554
C 2.17089 3.52836 -1.50939
C .82086 3.10616 3.30426
C -.20844 3.75764 2.67743
C .01579 4.35280 1.37359
C 1.25285 4.18114 .69898
C 1.21428 4.26381 -.69965
C -.70864 1.25444 3.95908
C .56327 1.87246 3.98977
C -1.53190 3.20347 2.71012
C -1.80383 1.96839 3.34395
C -4.03420 -.98241 2.73913
C -3.14422 -.06557 3.38322
C -2.99245 1.26309 2.93707
C -4.79502 -.55371 1.66018
C -4.59530 .77339 1.14850
C -3.70340 1.67899 1.74294
C -4.40819 -2.67688 .49107
C -3.52390 -3.07508 1.57170
C -3.37982 -2.27587 2.68891
C -5.03792 -1.43758 .53678
C -4.60498 -1.10253 -1.86881
C -3.91659 -2.37963 -1.90081
C -3.78858 -3.12245 -.74597
C -5.08070 -.60691 -.65513
C -2.73104 1.81570 -3.18378
C -3.73542 1.14212 -2.45237
C -3.93660 -.22514 -2.76972
C -2.16684 3.54426 1.48167
C -3.15877 2.73824 .91380
C -3.28025 2.68808 -.53825
C -2.32426 3.40740 -1.35385
C -2.12346 2.98952 -2.69069
C -4.77398 .74208 -.27691
C -4.05743 1.61970 -1.12870
