98 

C 3.19010 -1.52715 -2.95389
C 3.62331 -.20131 -2.78058
C 4.56413 .02341 -1.74510
C 4.74305 1.33450 -1.16997
C 3.98780 2.38982 -1.64540
C 1.89132 -1.82041 -3.52968
C .99049 -.78329 -3.89379
C 1.39970 .59277 -3.70765
C 2.73772 .88449 -3.18955
C 2.97420 2.14928 -2.65061
C -.93808 1.24994 -3.94460
C .38841 1.59943 -3.62310
C -2.24447 -2.44765 -3.01936
C -.87053 -2.36605 -3.40224
C -.39120 -1.13057 -3.99064
C -1.32137 -.07537 -4.17773
C 4.39683 2.11156 1.13636
C 3.70641 3.27896 .62335
C 4.92662 1.16938 .25941
C 3.47476 3.39553 -.73250
C .32326 4.00734 1.98630
C 2.63607 3.59415 1.54549
C 1.39553 4.12131 1.09619
C 2.15600 3.79063 -1.20375
C -.25177 4.02147 -.82125
C 1.11208 4.14702 -.34249
C -2.64036 3.75166 -.20907
C -1.34414 4.13856 .15079
C -1.04337 4.09275 1.53515
C .58983 2.79242 -2.81219
C 1.88667 3.06390 -2.39871
C -2.07061 1.97259 -3.38461
C -1.87083 2.99050 -2.42994
C -.50837 3.39509 -2.08290
C -2.91998 3.21431 -1.52091
C 4.11516 -.67111 1.69705
C 3.51060 .30939 2.57948
C 4.81097 -.21538 .56436
C 3.70371 1.66784 2.29658
C 2.66584 2.63861 2.59186
C .37032 3.10058 3.08298
C 1.48711 2.27064 3.27688
C 1.28526 .90072 3.69030
C 2.35563 -.06115 3.40368
C 2.08179 -1.41167 3.52519
C 2.72546 -2.41080 2.69213
C 3.61551 -2.04496 1.68187
C 3.62568 -2.82343 .45143
C 1.79823 -3.48582 2.53108
C 1.75271 -4.17854 1.34114
C 2.71113 -3.88741 .32405
C .56691 -3.13589 3.20254
C -.68942 -3.44588 2.63831
C -1.77941 -2.68663 3.09773
C -.95373 2.62750 3.32382
C -1.19930 1.32142 3.72219
C -.04802 .44271 3.96091
C -.29060 -.98081 4.05454
C .77012 -1.88155 3.84905
C -1.58876 -1.48683 3.83309
C 4.10653 -2.19630 -.77645
C 4.70808 -.93372 -.70004
C 2.06166 -4.17756 -.94056
C 2.43931 -3.51317 -2.07404
C 3.50274 -2.53928 -2.01538
C .65013 -4.42107 -.68227
C 1.42902 -3.02758 -2.99081
C .03829 -3.24052 -2.75526
C -.36340 -3.94303 -1.54670
C -.76060 -4.01614 1.29778
C .45892 -4.44187 .70976
C -2.98130 -2.56514 2.32125
C -3.03541 -2.99484 .99389
C -1.87079 -3.70947 .44120
C -1.66310 -3.71612 -.98963
C -2.61873 -3.07762 -1.82845
C -3.62872 -1.34472 2.75513
C -4.48027 -.67319 1.91210
C -4.70614 -1.18872 .57409
C -3.97831 -2.30875 .10361
C -3.77658 -2.38617 -1.28590
C -3.46036 1.48514 2.56358
C -2.53216 .76576 3.42755
C -2.70569 -.61314 3.56594
C -4.44986 .75275 1.86915
C -4.42402 2.29362 -.02246
C -3.53128 3.14442 .72459
C -3.06203 2.76414 2.00249
C -1.84054 3.32937 2.41636
C -4.88077 1.12996 .53943
C -3.16703 1.08138 -3.29759
C -4.09189 1.16191 -2.22639
C -4.01685 2.31778 -1.41710
C -4.10757 -1.31599 -2.14770
C -3.17534 -1.36177 -3.25946
C -2.72275 -.19908 -3.82208
C -4.97654 -.07910 -.27365
C -4.58566 -.08344 -1.63043
