98 

C -.53201 4.54939 -.35459
C -1.38198 4.25475 .71700
C -2.70211 3.86610 .37395
C -3.53384 3.11347 1.28831
C -3.01209 2.71695 2.48949
C .90261 4.52956 -.20301
C 2.82585 3.59424 .87368
C 1.49121 4.06003 .97906
C .63508 3.54361 2.05376
C -.79047 3.75705 1.95921
C -1.63115 3.03252 2.81719
C -3.92554 -.89189 2.50968
C -4.14499 .47639 2.28627
C -3.30639 1.38513 3.00326
C -2.16502 .93531 3.69005
C 1.90803 -.11870 3.79866
C .58227 .23119 3.88811
C -.43044 -.83101 3.78901
C -1.82113 -.44121 3.72643
C -2.76796 -1.34336 3.21886
C 3.35459 2.63915 1.81239
C 2.54096 2.08209 2.78768
C 1.14508 2.51336 2.91357
C .22359 1.63378 3.59219
C -1.12649 1.95537 3.57898
C 2.91430 .78901 3.28338
C -4.68290 .89908 .98716
C -4.34741 2.19137 .50737
C -4.23099 -1.89149 1.49713
C -4.75146 -1.50091 .27783
C -4.96601 -.08149 .01284
C -3.23193 -2.90696 1.54401
C -4.29330 -2.13101 -.91680
C -3.27925 -3.10963 -.89870
C -2.73655 -3.51731 .38465
C .77607 -4.20926 1.55833
C -.58891 -3.92665 1.64218
C -1.41391 -4.13424 .46500
C -.77975 -4.48625 -.73671
C 2.32394 -1.45901 3.49922
C 1.36059 -2.45734 3.21588
C -.04973 -2.13768 3.36171
C -1.02266 -2.98456 2.67580
C -2.34625 -2.58816 2.65182
C 1.75315 -3.49474 2.35660
C -4.35794 -1.12465 -1.96819
C -4.68865 .15050 -1.36488
C -4.06040 1.34459 -1.78825
C -4.02213 2.39509 -.85170
C -3.47808 -1.16256 -3.01320
C -2.53693 -2.25697 -3.12220
C -1.23505 -3.92402 -1.99501
C -2.44575 -3.24176 -2.09447
C -2.81440 .05033 -3.45169
C -3.02315 1.28600 -2.82671
C -1.94859 2.25398 -2.86049
C -2.01210 3.39103 -1.93937
C -3.00460 3.42587 -.93733
C -.84693 4.12598 -1.67323
C -1.53251 -.32247 -3.92269
C -.45007 .54310 -3.87864
C -.68083 1.90097 -3.43747
C 1.79176 2.20423 -3.39781
C .48640 2.75204 -3.20795
C .38539 3.85127 -2.35773
C -.08246 -3.51176 -2.73720
C -.09865 -2.32097 -3.47662
C -1.37111 -1.75859 -3.73779
C 1.08264 -1.48017 -3.50116
C .90005 -.05578 -3.84371
C 1.96608 .79627 -3.69383
C 2.89055 2.61888 -2.63358
C 2.71656 3.56986 -1.57631
C 1.46846 4.20562 -1.47753
C 3.44651 3.37495 -.37076
C 3.78535 1.47432 -2.46034
C 4.82757 -.03798 -.87584
C 4.52994 1.29423 -1.25621
C 4.38259 2.26089 -.22203
C 1.08641 -3.90448 -2.01213
C 2.24300 -3.12956 -2.01663
C 2.26728 -1.91285 -2.83747
C 4.28054 -1.14943 -1.59602
C 3.36016 -.95868 -2.63315
C 3.20863 .36918 -3.11274
C 2.70499 -3.93666 .28204
C 1.39936 -4.54880 .32282
C .63661 -4.60772 -.82448
C 4.14058 -2.25371 -.66761
C 3.13975 -3.25130 -.86048
C 3.55103 -1.38620 2.80797
C 4.52151 -1.81628 .60388
C 3.84035 -2.30741 1.76848
C 2.96011 -3.39208 1.59494
C 4.36263 1.85620 1.13207
C 4.92508 -.41490 .49666
C 4.60602 .50889 1.51127
C 3.91652 .02459 2.68060
