98 

C -4.08288 -1.04818 2.12007
C -3.72606 -2.23815 1.45429
C -4.16619 -2.37701 .10518
C -3.45261 -3.21218 -.81685
C -2.43041 -4.01010 -.36544
C -3.30582 -.55363 3.20035
C -2.10826 -1.17301 3.59523
C -1.69030 -2.38995 2.91191
C -2.53136 -2.94013 1.89007
C -1.96507 -3.88866 .99341
C .59422 -2.05520 3.76957
C -.28687 -2.78753 2.95953
C .18733 -.81552 4.40807
C -1.12270 -.33929 4.27961
C -1.28672 1.07099 4.30062
C .17971 -3.40629 -2.91084
C -1.12927 -3.53235 -2.43066
C -1.29108 -4.25644 -1.22000
C -.17650 -4.46634 -.37309
C 1.13262 -4.21419 -.80067
C 1.29433 -3.86191 -2.16672
C 3.45589 -2.84090 -1.70840
C 2.43358 -3.08106 -2.59270
C .29905 -3.58786 1.90992
C -.58236 -4.17815 .99160
C 1.97633 -1.97762 3.48831
C 2.54189 -2.59163 2.33615
C 1.70156 -3.43419 1.53692
C 2.11842 -3.77182 .18245
C 3.31384 -3.22465 -.31244
C -2.11471 -2.52202 -2.80774
C -3.31036 -2.48950 -2.07140
C .58574 -2.23345 -3.66583
C -.29519 -1.16512 -3.89260
C -1.69767 -1.32191 -3.52085
C -2.53830 -.16167 -3.48477
C -1.97256 1.08879 -3.85908
C 1.96835 -2.02914 -3.46178
C 2.53495 -.72457 -3.41906
C 1.69427 .38915 -3.74726
C .29078 .14358 -4.06303
C -.59060 1.23443 -4.11248
C 3.30912 1.88557 -2.64406
C 2.11210 1.73095 -3.36289
C 4.08553 .76977 -2.23576
C 3.72911 -.54048 -2.61360
C 4.16876 -1.59746 -1.76324
C -3.73115 -.13495 -2.65671
C -4.08656 -1.30661 -1.95832
C -2.43638 2.32638 -3.28345
C -3.45680 2.31929 -2.36523
C -4.16983 1.10319 -2.10161
C -1.29637 3.18920 -3.07225
C -1.13167 3.87673 -1.84074
C .17831 4.22907 -1.49457
C 1.12662 2.80390 -3.25153
C -.18366 2.56033 -3.68059
C 1.29072 3.81076 -2.26358
C -4.64392 1.17559 -.75772
C -4.85105 -.00009 .00686
C -4.64253 -1.24985 -.62905
C -4.64102 .07405 1.40693
C -4.08610 2.35506 -.14323
C -3.72763 2.37388 1.21970
C -4.16485 1.27406 2.01526
C -2.42805 1.68559 3.66189
C -3.44957 .89409 3.19870
C -2.11514 3.69881 -.77526
C -3.31168 3.04470 -1.11271
C .58700 4.29672 -.10228
C -.29207 3.95949 .93814
C -1.69537 3.71632 .61961
C -2.53404 3.10463 1.60805
C -1.96578 2.80306 2.87694
C 1.96966 4.01675 -.03053
C 2.53809 3.32720 1.07665
C 1.69971 3.05514 2.20713
C .29625 3.45207 2.15540
C -.58308 2.94936 3.12653
C 3.31597 1.35101 2.94777
C 2.11945 2.05115 3.17582
C 4.16788 2.32846 -.51121
C 3.45287 2.90264 -1.61372
C 2.43169 3.78914 -1.37696
C 4.08985 1.55482 1.77563
C 3.73124 2.53696 .83050
C 4.64536 -1.32652 -.44581
C 4.64680 .28817 1.36900
C 4.85341 .00453 -.00457
C 4.64340 1.05199 -.93637
C 2.44003 -.69798 3.96357
C 3.46028 -.04996 3.31288
C 4.17265 -.71813 2.26275
C 3.73423 -1.98398 1.77275
C 4.08958 -2.31176 .44872
C -.17429 1.91201 4.05758
C 1.13567 1.41837 4.05120
C 1.30014 .05915 4.42825
