98 

C 2.54786 -2.22281 -2.95325
C 3.16111 -.99085 -2.79616
C 4.24468 -.87119 -1.81572
C 4.62975 .44427 -1.33625
C 5.11252 .59548 -.02275
C 4.02356 1.58039 -1.94348
C 2.94056 1.42417 -2.90337
C 2.40759 .19031 -3.23236
C 1.17829 -2.34059 -3.40923
C .36154 -1.21692 -3.63382
C 3.80826 2.77211 -1.23841
C 4.04027 2.82383 .17774
C 4.70523 1.73577 .76541
C 3.09846 3.53094 .98367
C 2.64708 3.43107 -1.81884
C .43657 4.33276 -1.47762
C 1.76734 4.20933 -1.02418
C 1.98470 4.25521 .38687
C -1.57168 -2.62750 -3.11200
C -1.06949 -1.36933 -3.50522
C .97415 .09861 -3.56546
C -1.32782 1.08988 -3.36275
C .13817 1.24296 -3.47706
C .74451 2.52673 -3.12732
C 2.12717 2.58799 -2.83361
C -.03659 3.55622 -2.58112
C 2.65174 2.97711 2.19660
C 3.18663 1.77221 2.70713
C 4.34745 1.27265 2.07919
C 4.70392 -.12432 2.16240
C 3.91373 -.98298 2.89839
C 1.25321 3.29772 2.35528
C .34712 2.41778 2.92074
C .85815 1.14333 3.44824
C 2.27671 .85582 3.37784
C 2.70283 -.48146 3.51453
C -1.49980 .31959 3.57711
C -.06294 .07710 3.64979
C .39942 -1.28056 3.55386
C 1.75827 -1.53056 3.49973
C -2.35056 -.78976 3.55307
C -2.00130 1.58620 3.07955
C -1.07255 2.57493 2.58837
C -3.34090 1.65628 2.66700
C -.65023 4.48025 -.55840
C -.45564 4.19969 .80334
C .88297 4.15839 1.26263
C -2.79082 3.30971 .93984
C -1.47449 3.45804 1.54243
C -3.72600 2.49484 1.57272
C 4.92709 -1.80282 .38505
C 4.15814 -2.74024 1.19247
C 5.19963 -.53681 .86340
C 3.64078 -2.32471 2.40936
C 2.28619 -2.64919 2.73765
C 1.45111 -3.37707 1.87774
C -.47459 -2.31662 3.03714
C -1.83569 -2.09065 3.15839
C 2.79661 -3.30904 -2.04316
C 4.52872 -1.97689 -.99155
C 3.70927 -3.15538 -1.03500
C .00343 -3.25446 2.05904
C 1.99589 -3.84205 .62245
C 3.33778 -3.52428 .31525
C 1.54924 -3.97952 -1.78803
C -.90290 -3.73522 1.06409
C 1.08281 -4.14577 -.46992
C -2.76884 -2.72536 2.31399
C -2.31598 -3.43429 1.18161
C -.35786 -4.15344 -.23538
C -1.20142 -4.09566 -1.34820
C -.70357 -3.63995 -2.62216
C .65083 -3.52461 -2.81469
C -5.23908 -.50609 -.67436
C -4.57931 -1.70417 -1.14394
C -3.67791 -1.66365 -2.23446
C -2.78766 -2.73581 -2.34231
C -4.97339 .68965 -1.30892
C -2.55217 -3.60739 -1.24977
C -3.15805 -3.36806 -.00642
C -4.30036 -2.53225 -.01712
C -3.97537 -1.91200 2.31207
C -5.32780 -.56658 .76775
C -4.74840 -1.83213 1.17277
C -4.82141 1.89982 -.53407
C -4.80486 1.83509 .85150
C -5.08389 .58336 1.51903
C -4.21191 .50707 2.67340
C -3.70245 -.71344 3.08088
C -1.83721 3.99892 -1.22371
C -3.85667 2.73000 -1.20989
C -2.95130 3.52768 -.49384
C -3.28418 -.38339 -2.81317
C -1.92257 -.20111 -3.34091
C -4.00712 .73445 -2.39618
C -3.39615 2.02007 -2.37701
C -2.10727 2.21708 -2.88378
C -1.45142 3.38906 -2.42755
