98 

C 3.78790 -2.01591 2.05396
C 3.54481 -.85297 2.80984
C 4.25455 .30457 2.41612
C 3.74339 1.62466 2.71451
C 2.61211 1.75248 3.47603
C 2.79339 -3.06971 1.99144
C .52817 -3.77595 2.21778
C 1.55624 -2.95150 2.67397
C 1.21642 -1.71545 3.36620
C 2.25549 -.71141 3.50218
C 1.86973 .57471 3.88135
C .62314 4.14690 1.49354
C 1.80218 3.57969 2.01207
C 1.66672 2.80027 3.18433
C .37962 2.32849 3.57589
C -1.95396 1.92782 2.89916
C -.79106 2.80282 2.98099
C -.64222 3.86437 2.05067
C -4.10774 1.45058 1.85070
C -3.05683 2.34268 2.05305
C -.53026 .03167 3.72122
C .49704 .93976 3.95571
C -3.43029 -2.59356 2.05020
C -2.57466 -1.79780 2.84104
C -2.87410 -.37777 2.95456
C -1.83439 .55630 3.29921
C -4.03820 .11226 2.33594
C -.17081 -1.35288 3.51228
C -.84056 -3.49637 2.52428
C -1.21860 -2.27391 3.08813
C 2.90863 3.32452 1.10009
C 3.93408 2.46545 1.54747
C 4.73626 1.71986 .63349
C 2.69811 3.46949 -.33220
C 3.56828 2.80157 -1.19750
C 4.57771 1.91015 -.72359
C .44936 4.33330 .06169
C 1.37857 3.85493 -.85259
C .89073 3.31935 -2.12469
C 1.80647 2.52697 -2.92856
C 3.11856 2.30711 -2.48110
C 1.27502 1.57271 -3.83449
C -.94790 4.31167 -.20838
C -2.80060 3.38406 -1.41186
C -1.44370 3.78465 -1.41393
C -.51856 3.21215 -2.36255
C -1.03448 2.17292 -3.25993
C -.13473 1.37547 -3.93324
C -2.85070 3.38418 1.04102
C -1.63116 4.05946 1.01759
C -3.53046 3.27392 -.20512
C 4.24597 -1.58363 -1.96375
C 4.81478 -.52965 -1.16500
C 4.66083 .78392 -1.63588
C 3.80206 1.07713 -2.74980
C 1.89877 .32297 -4.03514
C 3.15261 .03717 -3.45255
C 3.40416 -1.30795 -3.04730
C 4.93392 -.74453 .28359
C 4.90725 .36831 1.14959
C 3.77053 -2.81757 -1.35675
C 3.92494 -3.02451 -.01555
C 4.48500 -1.97677 .82676
C .58370 -4.35386 .90599
C 2.86635 -3.67865 .72351
C 1.67911 -4.13430 .07844
C .85165 -.69713 -4.11869
C .99954 -1.96102 -3.46856
C 2.31394 -2.30093 -3.05731
C 2.52424 -3.19705 -2.01429
C .09324 -3.52306 -1.76293
C 1.43186 -3.77478 -1.30974
C -.37305 -.05006 -4.11467
C -1.53663 -.66204 -3.59093
C -1.44066 -1.95167 -2.99185
C -.13084 -2.57114 -2.83478
C -3.75571 -1.68424 -2.22023
C -2.57328 -2.44008 -2.22385
C -2.36664 -3.40461 -1.16385
C -1.02662 -3.90694 -.90678
C -.74715 -4.39799 .37633
C -4.45048 1.76779 -1.73726
C -3.29546 2.37252 -2.33149
C -2.39711 1.64723 -3.10809
C -4.72576 .42938 -1.97898
C -3.78923 -.34244 -2.74688
C -2.64447 .22353 -3.30015
C -5.33391 .09552 .37143
C -4.92704 1.45771 .64020
C -4.58428 2.30002 -.39921
C -5.24962 -.41168 -.92591
C -4.44034 -2.56694 -.06458
C -4.51254 -2.02848 1.28767
C -4.86275 -.71144 1.48008
C -4.70676 -1.74221 -1.13817
C -1.62073 -4.09498 1.47622
C -3.32288 -3.46673 -.12477
C -2.88512 -3.64827 1.23577
