98 

C -3.25677 3.47521 -.17365
C -3.73686 2.57144 -1.16021
C -4.70995 1.61392 -.74117
C -4.95248 .44904 -1.48406
C -4.20916 .21083 -2.65756
C -2.04998 4.14477 -.34090
C -1.14867 3.81707 -1.41111
C -1.54849 2.84109 -2.35709
C -2.89417 2.28197 -2.28166
C -3.19142 1.11113 -3.02826
C .84444 2.53098 -3.03144
C -.51230 2.13101 -3.12611
C -.80147 .80801 -3.63518
C -2.11947 .33801 -3.61692
C 1.84608 1.63725 -3.52178
C 1.25413 3.55239 -2.07982
C .26339 4.14337 -1.22357
C 2.60734 3.57556 -1.66451
C -4.73553 -1.90778 -.84068
C -4.01719 -2.17006 -2.08957
C -5.17786 -.64390 -.54705
C -3.73708 -1.13635 -2.94812
C -2.40561 -1.03032 -3.50431
C -1.36981 -1.96546 -3.20017
C .22453 -.17757 -3.74780
C 1.54153 .29834 -3.79384
C -2.19464 -4.20006 .21963
C -4.12986 -2.72774 .19316
C -3.23037 -3.62747 -.47840
C -.02679 -1.55477 -3.37193
C -1.69080 -3.08550 -2.33096
C -3.00615 -3.17380 -1.82080
C -.93336 -4.40635 -.41659
C 1.06980 -2.35447 -2.79920
C -.62003 -3.74926 -1.61923
C -1.95531 -3.80627 1.57998
C -2.62681 -2.72727 2.14962
C -3.80756 -2.20463 1.45782
C -4.30694 -.87104 1.79021
C -5.01284 -.12346 .79682
C -3.64753 -.14174 2.78848
C -.56051 -4.05183 1.84433
C 1.56296 -3.30291 2.63128
C .17588 -3.22757 2.72840
C -.44075 -2.02316 3.25103
C -1.86361 -1.85843 3.06067
C -2.41541 -.62676 3.38591
C 1.40941 -4.28783 .39884
C .04254 -4.49032 .64492
C 2.19632 -3.94818 1.51911
C 2.65815 -.53986 -3.41566
C 2.42571 -1.83369 -2.87900
C .77627 -3.39052 -1.87658
C 3.41993 -2.33858 -2.03187
C 3.10341 -3.33363 -1.05252
C 1.80650 -3.82692 -.92449
C -3.58208 1.28219 2.75799
C -4.12027 1.99798 1.66907
C -4.83639 1.27043 .68720
C -3.44607 3.19138 1.26227
C -2.32222 1.67955 3.33180
C -1.64862 2.81427 2.91278
C -2.32015 3.65113 1.94721
C -.20596 4.56306 1.18114
C -1.53694 4.40716 .99200
C 2.39853 -2.21397 3.06482
C 1.83575 -.96989 3.37601
C .39026 -.88404 3.54105
C -.20215 .41739 3.65842
C -1.59633 .48913 3.69674
C 1.94162 1.52721 2.98650
C .55016 1.63492 3.32666
C -.18409 2.82074 2.97603
C .47989 3.83566 2.25225
C .67925 4.63303 .03867
C 1.96970 4.32505 .54305
C 4.39846 1.05255 1.59021
C 3.76263 2.27802 1.41757
C 3.93250 2.91579 .15612
C 2.94197 3.87467 -.31479
C 3.64725 -2.33946 2.37417
C 4.38204 -1.20346 2.10448
C 3.87726 .07186 2.51926
C 2.60833 .22590 3.09714
C 2.57652 2.56874 2.22660
C 1.81829 3.70113 1.86698
C 4.79745 -1.96683 -.18475
C 3.98512 -3.13698 .08472
C 3.50259 -3.36746 1.36153
C 5.03505 -1.04274 .81828
C 3.68396 .28899 -2.93613
C 4.51857 -.13342 -1.85736
C 4.46260 -1.49404 -1.51655
C 4.37867 2.17440 -.95719
C 3.57385 2.58864 -2.10679
C 3.21120 1.66273 -3.04183
C 5.02919 .37255 .50421
C 4.84779 .83994 -.81474
