98 

C -3.85256 -1.78480 -2.04950
C -4.32220 -.41587 -2.47725
C -2.57683 -4.23946 -.87158
C -3.66856 -3.52241 -.12203
C -4.46301 -2.41536 -.81023
C -1.37273 -4.79445 -.11012
C -4.93320 -1.46838 .29083
C -5.06331 .01196 .00300
C -4.93115 .50261 -1.42288
C -4.92892 1.00090 1.14089
C -4.32181 -1.92345 1.61194
C -3.84792 -.86945 2.58246
C -4.45641 .51995 2.51043
C -2.56481 1.37506 4.11610
C -3.65873 1.66802 3.12327
C 1.49102 -4.70406 .76065
C .43967 -3.96004 1.57352
C -1.00106 -4.05066 1.16992
C -2.02765 -3.17486 1.85966
C -3.45868 -3.15817 1.34432
C -.10235 -1.97700 3.18973
C -1.56918 -2.11902 2.84337
C -2.55629 -1.08724 3.33106
C -2.12096 -.06770 4.35501
C -4.31591 2.37143 .87277
C -3.84475 2.68444 -.52665
C -4.45648 1.92810 -1.69264
C -3.66140 1.88306 -2.99520
C -2.56601 2.88671 -3.24095
C -3.44963 2.75557 2.07408
C -2.01847 3.20766 1.82726
C -1.56282 3.53157 .41983
C -2.55220 3.43946 -.71565
C -2.11766 3.81359 -2.11192
C .88667 3.75123 1.24929
C -.09578 3.75399 .11984
C .33330 3.96680 -1.19949
C -.63556 4.07979 -2.32982
C 2.34768 4.09532 1.00767
C .45185 3.34433 2.64365
C -.98903 3.04478 2.92763
C 1.50546 3.00967 3.69173
C -1.35862 2.30923 4.21279
C 1.17239 3.07624 -3.90488
C -1.36229 2.50122 -4.10168
C -.24556 3.43361 -3.64719
C 2.25226 3.50352 -2.91636
C 2.83041 3.98662 -.43473
C 1.80777 3.98342 -1.54418
C 1.50026 1.69242 -4.45450
C .44446 .62032 -4.21855
C -.99551 1.01968 -4.09747
C -2.02616 -.01199 -3.68448
C -3.45594 .43045 -3.41258
C -.10633 -1.76817 -3.30877
C -1.57221 -1.39317 -3.26132
C -2.56238 -2.32834 -2.61193
C -2.13077 -3.72599 -2.23993
C 2.91614 1.37745 -3.97413
C 3.33409 -.05683 -3.77468
C 2.33693 -1.17712 -4.05336
C .87733 -.79121 -3.87292
C .32054 -3.01831 -2.83442
C -.64983 -4.05131 -2.36505
C 3.95535 2.95501 -.49675
C 3.97814 1.99419 -1.66552
C 3.35217 2.44208 -2.97177
C 2.81833 -2.37351 -3.23911
C 1.79435 -3.32955 -2.67924
C 2.23888 -4.27949 -1.57876
C 1.15951 -4.91869 -.71228
C -.25909 -4.87019 -1.14759
C 3.94637 -1.91514 -2.31673
C 3.97181 -2.44775 -.90025
C 3.34229 -3.80081 -.63373
C 4.22827 2.45478 .92170
C 4.19688 .95570 1.16186
C 4.15410 -.00638 -.00027
C 4.19476 .51926 -1.41470
C 4.22269 -.43743 -2.59340
C 4.22138 -2.03593 1.67004
C 4.19294 -1.49397 .25172
C 3.35317 1.34599 3.60411
C 2.92121 2.74734 3.18166
C 3.34162 3.29030 1.84019
C 3.95053 -1.05663 2.81224
C 3.97801 .43613 2.56444
C -.24529 1.44605 4.79479
C 2.82338 -1.62291 3.67316
C 1.80323 -.65721 4.22456
C 2.25090 .77038 4.49426
C 1.17386 1.84326 4.61586
C 2.90844 -4.13510 .79055
C 3.33119 -3.24694 1.93278
C 2.33757 -2.92531 3.04509
C .87728 -2.95690 2.62319
C .32827 -.94281 4.03498
C -.63909 -.01680 4.69583
