98 

C 1.53624 1.12004 4.08615
C 2.74549 .78352 3.45299
C 3.08491 -.59403 3.44990
C 3.99039 -1.12802 2.47851
C 4.55968 -.28655 1.54400
C .86424 2.32646 3.78965
C 1.26187 3.14170 2.69702
C 2.46186 2.78756 1.96260
C 3.24852 1.65266 2.40643
C 4.21505 1.11640 1.52974
C 1.64357 4.10280 .05375
C 2.63744 3.27353 .60291
C .44261 4.41244 .76171
C .23015 3.95160 2.07173
C -1.12542 3.82398 2.47987
C 4.38093 .39434 -1.94239
C 4.72349 -.73465 .18124
C 4.75818 .45570 -.63082
C 3.52508 2.58907 -.32987
C 4.34318 1.57980 .17904
C 3.71196 1.51668 -2.54817
C 3.23756 2.58820 -1.76906
C 3.79690 -.82468 -2.46024
C 3.56455 -1.93138 -1.64196
C 4.10453 -1.91027 -.27765
C 3.54754 -2.81015 .71779
C 3.51384 -2.42007 2.07541
C 2.58426 -3.75922 .30636
C 2.89003 -.46100 -3.50409
C 1.70764 -1.19144 -3.74188
C 1.47412 -2.40117 -2.97664
C 2.43801 -2.78817 -1.97482
C 2.06175 -3.76366 -1.02692
C -.90241 -2.29683 -3.61220
C .12680 -2.95844 -2.92157
C 1.81373 1.66026 -4.08021
C 2.92778 .97959 -3.63357
C .64485 .93003 -4.47174
C .59440 -.47926 -4.33901
C -.69006 -1.04450 -4.25103
C 1.32647 4.08126 -1.34720
C 2.07926 3.31398 -2.26119
C 1.39580 2.85730 -3.40926
C .46380 -4.66055 .37842
C 1.55758 -4.21136 1.19275
C 1.32170 -3.53808 2.41381
C 2.36662 -2.71353 2.88157
C -.82289 -4.56992 .85735
C -.26568 -3.86477 -1.85164
C .73990 -4.30930 -.98406
C -1.89358 -4.30920 -.05065
C -1.64821 -3.91740 -1.38409
C -1.07908 -3.84633 2.09601
C -.05539 -3.23118 2.81206
C -.36361 -2.00601 3.53724
C .75310 -1.22526 4.04115
C 2.09327 -1.58811 3.70854
C .54982 .10740 4.39357
C -3.87395 -2.89004 .12575
C -2.93519 -3.67263 .73211
C -2.37543 -3.25899 1.99928
C -4.35299 -1.70777 .79040
C -3.73456 -1.21593 1.95857
C -2.66585 -2.00997 2.56500
C -1.65436 -1.38318 3.39357
C -1.83139 .01992 3.75651
C -.74233 .70346 4.31286
C -2.26983 -2.31736 -3.14487
C -2.65461 -3.08772 -2.03330
C -3.77189 -2.62440 -1.29687
C -.53334 2.11038 4.10125
C -1.50515 2.85175 3.48837
C -3.82037 .20582 2.22316
C -2.89382 .81903 3.15440
C -2.73246 2.22124 3.09818
C -4.78110 -.81913 -.25228
C -4.79547 .52930 -.03010
C -4.45759 1.03128 1.26733
C -2.83533 -1.03998 -3.38534
C -3.75677 -.46183 -2.49524
C -4.31805 -1.33156 -1.52832
C -.49256 1.72503 -4.13300
C -2.59067 1.76747 -2.78671
C -1.73636 1.14113 -3.80212
C -1.85169 -.23518 -4.05692
C -4.27368 1.44612 -1.04025
C -3.65363 .97630 -2.21069
C -.08021 4.23460 -1.48684
C -3.80621 2.59544 -.36730
C -2.70536 3.32832 -.83956
C -2.11886 2.94698 -2.10388
C -.80359 3.50033 -2.45058
C -.03534 2.90259 -3.46929
C -4.03558 2.38755 1.06173
C -3.22398 2.98337 1.98169
C -2.18274 3.89398 1.53797
C -1.92119 4.07588 .15397
C -.62342 4.48159 -.17933
