98 

C -2.36516 1.35663 3.53020
C -2.17670 2.51164 2.76657
C -.52435 4.03057 1.60207
C -1.52407 4.32361 .65826
C -1.19445 4.54282 -.71123
C .13382 4.63561 -1.09598
C .24459 2.35055 3.27364
C -.82937 3.05269 2.65923
C 1.58944 2.73562 2.96711
C 1.89182 3.66226 1.98666
C .84628 4.28022 1.22031
C 1.15571 4.61966 -.11268
C -1.05722 -2.96414 3.12756
C -.61907 -1.76169 3.73932
C -1.59766 -.79479 3.98411
C -1.25242 .60119 4.01131
C 1.11496 .01242 3.75127
C .05276 1.02677 3.83013
C -1.67634 3.00374 -2.57671
C -.24765 3.01248 -2.91353
C -2.11623 3.80502 -1.52334
C .58887 3.88637 -2.23085
C 1.99137 3.58098 -2.01140
C 3.74719 1.94343 -1.93750
C 2.58596 2.39457 -2.55083
C 1.73980 1.45810 -3.29676
C .36605 1.82892 -3.54107
C -.50462 .85352 -4.01856
C 3.18346 3.30241 1.39981
C 3.38559 3.42832 .01271
C 2.35586 4.06894 -.75317
C 4.16070 2.43648 -.64406
C -1.94266 .89913 -3.78516
C -2.51903 1.86526 -2.96633
C -3.69398 1.49834 -2.17171
C -2.41630 -.45354 -3.80796
C -3.49792 -.81563 -3.02495
C -4.17958 .18305 -2.25602
C -1.29496 -1.33028 -3.91593
C -3.44091 -2.03205 -2.26642
C -2.32361 -2.86472 -2.30062
C -1.22044 -2.51871 -3.18817
C 2.51026 -2.68413 -2.71879
C 1.29655 -2.30892 -3.29358
C .10581 -3.08141 -2.96001
C .21447 -4.11135 -2.02357
C 4.15354 .56712 -2.03537
C 3.37944 -.36460 -2.77229
C 2.13936 .07768 -3.40531
C 1.15973 -.92368 -3.74439
C -.11548 -.50204 -4.11263
C 3.53981 -1.71290 -2.43540
C -3.98664 2.24663 -.94914
C -3.19122 3.36631 -.64586
C -4.73771 -.49665 -1.09702
C -4.96423 .19471 .06937
C -4.61087 1.60086 .14069
C -4.20258 -1.82502 -1.04268
C -4.68000 -.42103 1.32876
C -4.07188 -1.68810 1.40479
C -3.82427 -2.41682 .16454
C -.86318 -4.39318 -1.08570
C -2.07911 -3.71124 -1.13503
C -2.79833 -3.46420 .10942
C -2.19512 -3.85441 1.31006
C -4.31659 .64915 2.23654
C -4.20614 1.87860 1.47886
C -3.17904 2.81093 1.74486
C -2.81167 3.65686 .68283
C -3.43366 .41339 3.25730
C -2.92495 -.91994 3.46314
C -2.31941 -3.03469 2.50553
C -3.23849 -1.96237 2.57000
C 1.16613 -4.61516 .05366
C -.25809 -4.76582 .15892
C -.89172 -4.43592 1.33872
C 1.90939 -3.96301 1.05117
C 1.20433 -3.48206 2.24215
C -.13727 -3.80901 2.38882
C 3.51862 -3.26242 -.69596
C 2.58476 -3.69424 -1.71000
C 1.44831 -4.37724 -1.34798
C 3.73790 -2.36150 1.53516
C 3.17134 -3.33822 .66226
C 4.79639 .20907 -.83674
C 4.54366 -1.31885 1.06193
C 4.72256 -1.12572 -.34889
C 4.18994 -2.09748 -1.21157
C 3.67464 2.16300 2.09729
C 4.35578 -.16264 1.93842
C 4.45756 1.17225 1.44612
C 4.74439 1.35885 .06454
C 1.70949 -2.30209 2.97585
C .77372 -1.36259 3.62239
C 2.97924 -1.85856 2.67256
C 3.38450 -.50149 2.90033
C 2.45714 .45241 3.39466
C 2.68545 1.79101 3.06263
