98 

C 3.32760 -.63870 3.17748
C 3.28453 .74220 3.05825
C 4.20448 1.33776 2.13246
C 3.89863 2.60863 1.51737
C 2.80268 3.30299 1.92320
C 1.91532 2.74914 2.93675
C 2.03565 1.43344 3.38765
C 2.16771 -1.38268 3.61196
C .90524 -.77458 3.78044
C 3.29041 2.47711 -2.11520
C 3.31454 3.08299 -.86828
C 4.22053 2.53090 .10672
C 1.98141 4.01865 .95705
C 2.12002 3.81237 -.41346
C -.33927 4.23378 -.65175
C .90459 3.84725 -1.24360
C .87950 3.09893 -2.47697
C 2.08245 2.46775 -2.91539
C -1.53945 3.98059 -1.36750
C .68915 4.16549 1.55842
C -1.69575 4.05525 1.42362
C -.44972 4.36455 .79054
C -.09427 -2.93927 3.23453
C -.27025 -1.58938 3.61022
C .81432 .67565 3.68075
C -1.68217 .44131 3.39592
C -.46565 1.27790 3.51793
C -.53106 2.66399 3.09139
C .64289 3.34282 2.74706
C -1.72307 3.18963 2.52571
C 4.86319 1.30327 -.10427
C 4.00914 1.26164 -2.38789
C 4.73715 .60804 -1.35497
C 3.25990 .52747 -3.33953
C 3.20545 -.88678 -3.28067
C 2.00954 -1.52493 -3.71105
C 2.06037 1.30084 -3.66452
C -1.53728 3.15258 -2.49729
C -.34995 2.60785 -3.01082
C -.41027 1.30443 -3.67907
C .81656 .66005 -3.99775
C .84668 -.74755 -4.14441
C 4.73990 -.80535 -1.34072
C 3.96616 -1.54415 -2.27771
C 1.54088 -2.68685 -3.07262
C 2.17831 -3.21593 -1.91524
C 3.44181 -2.69978 -1.60754
C 1.34730 -3.81634 -.86690
C 1.89516 -3.89076 .49369
C 1.01521 -4.11585 1.55208
C .11298 -2.71944 -3.19916
C -.69235 -3.32632 -2.26419
C -.06124 -3.93374 -1.07678
C -2.31683 -3.98909 -.03877
C -.92584 -4.23602 .04549
C -.38498 -4.26639 1.33854
C -3.74729 -1.14269 -2.59706
C -2.53952 -1.74014 -2.96123
C -2.11310 -2.94097 -2.26058
C -2.92358 -3.42943 -1.23675
C -2.79688 2.43362 -2.55917
C -2.84322 1.12141 -3.07033
C -1.62781 .51763 -3.60358
C -1.54242 -.90800 -3.62829
C -.29842 -1.50548 -3.88853
C -3.88790 .30043 -2.61659
C 4.73633 -1.54603 -.07808
C 4.75824 -.85824 1.17698
C 4.86488 .56186 1.16572
C 4.07528 -1.44896 2.25346
C 3.94357 -2.68801 -.24726
C 3.17439 -3.24109 .81492
C 3.37051 -2.68884 2.09269
C 1.17135 -3.43575 2.82773
C 2.29792 -2.68609 3.06260
C -4.20228 -2.80252 .59760
C -3.04741 -3.52796 1.07847
C -2.34699 -3.09751 2.24211
C -1.07118 -3.61031 2.41035
C -4.62238 -1.68187 1.28225
C -5.12305 -.52327 -.82322
C -4.55917 -1.65064 -1.53800
C -4.13504 -2.77847 -.84779
C -5.14341 -.53780 .56081
C -3.59167 2.82200 -1.46105
C -4.45613 1.89011 -.82423
C -4.70866 .68704 -1.51572
C -3.67456 2.79940 1.34537
C -2.90416 3.82508 .65775
C -2.83243 3.81247 -.70981
C -4.75153 .65412 1.28943
C -4.48964 1.86848 .63855
C -2.65527 -1.79518 2.83019
C -1.57431 -.97329 3.39129
C -3.82377 -1.17714 2.39404
C -3.94848 .24307 2.41119
C -2.91596 1.04926 2.90854
C -2.92597 2.39592 2.46428
