98 

C 2.31032 -3.63201 1.49385
C 2.74253 -2.51401 2.20002
C 3.91748 -1.78777 1.70544
C 4.16449 -.42202 2.15410
C 4.85322 .48324 1.30026
C 3.29095 .13305 3.11068
C .93873 -4.07449 1.53619
C -.04530 -3.39397 2.25786
C .36202 -2.22376 3.03269
C 1.75918 -1.84965 3.05095
C 2.10422 -.58502 3.54753
C -2.05337 -1.52682 3.15429
C -.63746 -1.27112 3.42942
C -.24032 .06983 3.76056
C 1.11874 .36033 3.86670
C -2.95330 -.45977 3.27939
C -2.45349 -2.66889 2.36262
C -1.43332 -3.57495 1.86145
C -3.70125 -2.62684 1.70120
C -1.70752 -4.29990 .68394
C 2.99824 1.52197 3.14065
C 3.53357 2.39095 2.15265
C 4.46852 1.85745 1.23962
C 2.71082 3.46254 1.70931
C 1.64137 1.68210 3.59675
C -2.47839 .90761 3.37312
C -1.13710 1.19575 3.53595
C -.63415 2.45695 3.03782
C .80617 2.69267 3.10631
C 1.39827 3.65561 2.23693
C 2.69090 3.83578 .33159
C 3.45315 3.11901 -.64128
C 4.46730 2.27587 -.15125
C 4.98523 1.18285 -.93209
C 4.45005 .92648 -2.18145
C 1.39845 4.32847 .02934
C -.60343 4.25578 -1.27904
C .79491 4.09640 -1.23087
C 1.45287 3.20586 -2.18289
C 2.82118 2.80539 -1.92015
C 3.34860 1.73006 -2.65528
C -3.34302 1.75523 2.62595
C -2.81567 2.82420 1.88243
C -1.44728 3.22567 2.14190
C -.78875 4.10717 1.18209
C .60967 4.26550 1.22875
C -1.39191 4.32889 -.07997
C 5.06791 -1.21929 -.43236
C 4.55864 -1.49842 -1.76786
C 5.25935 .08360 -.02627
C 4.21036 -.44686 -2.59859
C 2.81426 -3.91838 .17787
C 3.82580 -3.16025 -.34394
C 3.70236 -2.64440 -1.69121
C 2.95695 -.49064 -3.28902
C 2.05603 -1.55582 -3.15396
C 2.45492 -2.69120 -2.35207
C .04686 -3.41401 -2.24052
C 1.43461 -3.59224 -1.84253
C 1.70859 -4.30700 -.65855
C -.93726 -4.08709 -1.51234
C -.64433 -4.64344 -.21303
C .64550 -4.64198 .24174
C -1.75575 -1.87476 -3.04729
C -1.11394 .32779 -3.88315
C .24496 .03694 -3.77394
C .64077 -1.30166 -3.43104
C -.35920 -2.25017 -3.02580
C -2.09953 -.61421 -3.55529
C -1.39262 3.63798 -2.28214
C -.80104 2.66676 -3.14320
C .63930 2.43020 -3.07241
C 1.14215 1.16424 -3.55954
C 2.48362 .87649 -3.39525
C -1.63615 1.65233 -3.62541
C 4.47860 -2.18032 .47542
C -3.28562 .10866 -3.12506
C -4.84793 .47596 -1.31806
C -4.15944 -.43702 -2.16343
C -3.91390 -1.79874 -1.70281
C -2.73952 -2.53043 -2.19055
C -2.30826 -3.64234 -1.47424
C -2.70489 3.45010 -1.75245
C -4.46275 1.85039 -1.26941
C -3.52757 2.37508 -2.18693
C -2.99274 1.49711 -3.16754
C -4.44511 .94862 2.15905
C -4.98038 1.19477 .90794
C -4.46193 2.28076 .11796
C -3.44746 3.12748 .60136
C -2.68457 3.83469 -.37769
C -5.06519 -1.21131 .42939
C -4.55668 -1.47948 1.76751
C -4.20685 -.42101 2.58869
C -5.25521 .08810 .01168
C -2.81276 -3.91704 -.15621
C -4.47595 -2.18044 -.46976
C -3.82430 -3.15370 .35811
