98 

C -4.50424 .01311 -2.11844
C -5.01022 .00977 -.84748
C -4.86873 -1.17560 -.00929
C -4.87284 -.72751 1.34545
C -4.12759 -1.41796 2.29259
C -3.82165 1.18424 -2.61788
C -3.64368 2.32647 -1.80049
C -2.58334 3.16940 -2.14612
C -4.87234 .73547 1.34938
C -3.36518 -.68961 3.29751
C -3.36476 .68697 3.30121
C -4.12670 1.42074 2.30013
C -4.09539 2.29754 -.41123
C -4.86820 1.19064 -.00294
C -3.36068 2.55978 1.91309
C -3.32248 3.01456 .59008
C -.99701 -3.21300 2.32605
C -2.15754 -2.57996 2.72556
C -2.12444 -1.39183 3.51523
C -2.12375 1.38769 3.52277
C -.90958 .72665 3.75572
C -.91002 -.73248 3.75174
C 1.56912 -.73014 3.60074
C .31211 -1.45405 3.50453
C .26784 -2.72307 2.84498
C 2.74687 -1.38971 3.22636
C 2.70379 -2.64339 2.53458
C 1.49336 -3.29475 2.31829
C 1.42291 -4.17164 1.19262
C 1.56985 .72327 3.60486
C .31326 1.44862 3.51235
C 2.74820 1.38393 3.23448
C -.99483 3.21433 2.34295
C -2.15579 2.57987 2.73898
C 1.42562 4.17817 1.21594
C 1.49569 3.29483 2.33647
C .26989 2.72107 2.85951
C 2.70612 2.64175 2.55017
C -1.05182 4.01335 1.11202
C -1.95250 4.03991 -1.17023
C -2.17617 3.83896 .19501
C .14704 4.51054 .61232
C .14425 -4.50040 .58794
C -1.05408 -4.00551 1.09064
C -2.17813 -3.82589 .17471
C .36531 -4.65449 -.81843
C -.65107 -4.32095 -1.69816
C -1.95440 -4.01975 -1.19214
C 1.70125 -4.26457 -1.10864
C 1.96593 -3.36307 -2.15594
C 3.18668 -2.61479 -2.08296
C 3.75838 -2.65402 1.54197
C 3.54481 -3.28233 .30543
C 2.38768 -4.10862 .17878
C 4.02977 -2.63327 -.86855
C -3.32395 -3.00313 .57414
C -3.36186 -2.55512 1.89929
C -2.58496 -3.14403 -2.16366
C -3.64485 -2.30237 -1.81320
C -4.09651 -2.28063 -.42368
C -3.82237 -1.15554 -2.62443
C -1.58886 -2.73066 -3.08998
C -1.56407 -1.41721 -3.58329
C -2.76897 -.70378 -3.45869
C -1.56305 1.44997 -3.57487
C -2.76857 .73661 -3.45465
C -1.58721 2.76056 -3.07431
C .87514 -2.82038 -2.93444
C -.37183 -3.43117 -2.78580
C .93362 1.45598 -3.40671
C 3.30386 -1.38595 -2.69765
C 2.14863 -.70086 -3.26445
C .93255 -1.42494 -3.41584
C -.28456 -.70311 -3.68648
C -.28408 .73613 -3.68208
C 4.34888 -.66468 -1.98701
C 4.34973 .68788 -1.98283
C 3.30451 1.41282 -2.68825
C 2.14892 .73096 -3.25959
C .87704 2.84845 -2.91714
C -.36975 3.45890 -2.76599
C 4.46222 -1.41034 1.62421
C 4.88308 -.73109 .46658
C 4.70283 -1.41044 -.78506
C 4.46394 1.41266 1.63305
C 3.90523 .68250 2.75641
C 3.90456 -.68660 2.75240
C 4.70479 1.42674 -.77696
C 4.88412 .73980 .47150
C 2.39082 4.12037 .20237
C 4.03249 2.65022 -.85272
C 3.54787 3.29289 .32514
C 3.76129 2.65752 1.55860
C -.64871 4.34308 -1.67428
C 3.18844 2.63795 -2.06626
C 1.96786 3.38650 -2.13546
C 1.70405 4.28301 -1.08427
C .36797 4.67161 -.79309
