98 

C 2.21249 -.69778 -3.43571
C 3.31033 -1.39089 -2.79581
C 4.35209 -.67193 -2.07683
C 2.21306 .72446 -3.43032
C 3.31179 1.41114 -2.78554
C 4.35301 .68517 -2.07193
C -.10872 .73591 -4.09599
C .98117 1.45377 -3.61355
C .73216 2.70662 -2.91634
C 1.82927 3.27879 -2.15256
C 3.11223 2.60781 -2.12935
C 1.55595 4.13420 -1.09040
C -1.45021 1.19177 -3.92376
C -1.73794 2.30805 -3.13949
C -.61932 3.10358 -2.63619
C -2.12690 4.00528 -.87805
C -.86810 4.00785 -1.52643
C .21480 4.45789 -.75137
C -3.21115 3.16335 -1.34314
C -3.03972 2.33068 -2.45851
C -3.87629 1.18690 -2.51714
C 4.46127 1.40316 1.55591
C 4.86821 .73173 .38743
C 4.67315 1.41894 -.85496
C 3.96559 2.62575 -.92151
C 2.32514 4.07127 .15588
C 3.49878 3.26396 .25957
C 3.75534 2.64453 1.49378
C 4.86753 -.73974 .38226
C 4.67151 -1.41617 -.86549
C 3.92657 .67129 2.69145
C 3.92607 -.69708 2.68674
C 4.46004 -1.42053 1.54616
C 2.78190 1.37311 3.19802
C -2.08135 -1.40902 3.56419
C .35449 -1.47530 3.52960
C 1.61096 .71303 3.59090
C 1.61014 -.74251 3.58547
C 2.78053 -1.40131 3.18804
C -.86646 -.74742 3.77473
C 1.42290 4.17644 1.21790
C 1.52398 3.30523 2.35427
C 2.72873 2.63402 2.51923
C -.86548 .72012 3.78023
C .30973 2.74561 2.93443
C .35669 1.44809 3.54040
C 3.75215 -2.66025 1.47386
C 3.49529 -3.26927 .23497
C 3.96276 -2.62169 -.94102
C 2.32101 -4.07417 .12514
C 2.72557 -2.65678 2.49961
C .30621 -2.76820 2.91365
C 1.52016 -3.32521 2.32963
C 1.41841 -4.18702 1.18608
C -2.13443 -2.66605 2.89500
C -.97174 -3.31917 2.49464
C 1.55221 -4.12546 -1.12194
C 1.82663 -3.26160 -2.17738
C 3.10996 -2.59240 -2.14860
C .73025 -2.68205 -2.93734
C .98000 -1.42400 -3.62495
C -.10955 -.70093 -4.10183
C .21062 -4.45021 -.78587
C -2.13052 -3.99355 -.91000
C -.87149 -3.99245 -1.55799
C -.62159 -3.07971 -2.66075
C -1.73967 -2.27879 -3.15795
C -1.45145 -1.15656 -3.93333
C -1.05496 -4.16519 1.29658
C .12182 -4.50977 .63574
C -2.22781 -4.11387 .49382
C -3.21372 -3.14660 -1.36844
C -3.04148 -2.30532 -2.47709
C -3.87707 -1.16026 -2.52651
C -3.48728 .01612 -3.26972
C -2.30408 .01818 -3.95072
C -3.98466 -2.74885 -.24405
C -4.54013 -.73193 1.10277
C -4.55150 -1.45259 -.17401
C -4.57836 -.71952 -1.37533
C -4.00922 1.39345 2.23142
C -4.53954 .73057 1.10869
C -3.29995 .67403 3.24841
C -3.30066 -.69362 3.24290
C -4.01044 -1.40422 2.22002
C -3.36525 -2.69678 2.10666
C -3.39403 -3.37355 .91769
C -.96777 3.30181 2.52038
C -2.13103 2.64745 2.91572
C -2.07915 1.38517 3.57459
C -3.39082 3.37220 .94503
C -2.22364 4.11439 .52669
C -1.05038 4.15759 1.32913
C .12663 4.50580 .67072
C -3.36237 2.68606 2.12827
C -4.57794 .73779 -1.36942
C -4.55053 1.46134 -.16223
C -3.98247 2.75757 -.22189
