98 

C 2.26162 -3.09296 2.23944
C 2.98723 -2.00700 2.75596
C 4.21495 -1.70648 2.11826
C 4.82211 -.39306 2.21535
C 4.14281 .60131 2.88647
C .84457 -3.22710 2.46241
C .09282 -2.22848 3.06366
C .80150 -1.03374 3.54238
C 2.24360 -.95786 3.43461
C 2.86749 .30765 3.51689
C -1.40449 .13762 3.68714
C .05100 .16510 3.71247
C .70197 1.42507 3.51009
C 2.08233 1.47346 3.42827
C -2.08039 1.36233 3.59495
C -2.10199 -1.06617 3.28591
C -1.34535 -2.19257 2.79775
C -3.45937 -.96609 2.94192
C 5.44715 1.17610 .41990
C 4.66140 2.20343 1.08867
C 5.49496 -.10625 .96112
C 4.05361 1.93046 2.30527
C 2.74809 2.43991 2.56898
C 2.00536 3.12847 1.59447
C -.02081 2.51136 2.88022
C -1.38975 2.50990 3.03193
C 3.55431 2.55626 -2.27047
C 5.27977 1.35386 -1.00453
C 4.41019 2.50267 -1.19558
C .55975 3.19638 1.75569
C 2.60049 3.35853 .30415
C 3.94034 2.95220 .09970
C 2.23855 3.12881 -2.10941
C -.28430 3.54465 .66385
C 1.72005 3.49056 -.84874
C 3.44652 1.42539 -3.17559
C 4.15846 .26748 -2.90903
C 5.13189 .24055 -1.83379
C 5.08814 -1.08090 -1.25334
C 5.29853 -1.25240 .10287
C 2.08152 1.33238 -3.59844
C -.84675 -3.24512 -2.43050
C 1.34354 -2.21520 -2.77377
C 1.40463 .10747 -3.68141
C 2.10110 -1.09361 -3.27052
C 3.45844 -.99217 -2.92689
C -.09438 -2.25214 -3.04003
C -2.24396 -.98218 -3.42107
C -2.08091 1.44887 -3.43294
C -.70054 1.39852 -3.51403
C -.05065 .13637 -3.70717
C -.80207 -1.06056 -3.52825
C -2.86699 .28307 -3.51276
C -2.00271 3.11740 -1.61149
C .02314 2.48865 -2.89198
C 1.39202 2.48473 -3.04384
C -2.74599 2.42220 -2.58089
C -.55696 3.18281 -1.77291
C -2.23575 3.14757 2.09256
C -1.71705 3.49866 .82893
C .28738 3.53903 -.68389
C -2.59756 3.35815 -.32304
C -3.93782 2.95472 -.11591
C 2.55810 -3.61829 .96148
C 4.50163 -2.22687 .82015
C 3.55812 -3.04088 .15517
C 4.02882 -1.82911 -1.91515
C 1.91624 -3.05472 -1.76612
C 3.24786 -2.77322 -1.25064
C -.31446 -3.99597 -1.32833
C 1.03560 -3.89060 -.96701
C 1.33636 -4.12556 .39228
C -1.33915 -4.12667 -.35311
C -1.03841 -3.88198 1.00435
C .31159 -3.98611 1.36635
C -3.24997 -2.76044 1.27965
C -1.91875 -3.03943 1.79697
C -4.03039 -1.81063 1.93686
C -2.56025 -3.62222 -.92644
C -4.50251 -2.22858 -.79590
C -3.55997 -3.03819 -.12455
C -4.14210 .58247 -2.88426
C -4.82200 -.40585 -2.20513
C -4.21558 -1.71845 -2.09822
C -2.98844 -2.02514 -2.73410
C -2.26365 -3.10744 -2.20885
C -5.44631 1.17773 -.42215
C -4.65962 2.19908 -1.09889
C -4.05197 1.91601 -2.31330
C -5.49468 -.10884 -.95315
C -3.55210 2.57722 2.25760
C -5.27848 1.36634 1.00080
C -4.40796 2.51591 1.18301
C -5.29894 -1.24825 -.08599
C -5.08901 -1.06660 1.26886
C -5.13166 .25946 1.83878
C -4.15824 .29400 2.91367
C -3.44530 1.45305 3.17111
