98 

C -3.59543 -2.53487 -1.69762
C -3.65682 -1.25441 -2.30071
C -4.53791 -.29899 -1.73720
C -4.34894 1.11428 -2.02770
C -3.40495 1.50351 -2.98304
C -2.46983 -3.42477 -1.96350
C -1.33343 -2.89973 -2.60862
C -1.37062 -1.58512 -3.17729
C -2.56809 -.81423 -3.13634
C -2.56325 .51584 -3.62652
C 1.02202 -1.74976 -3.76017
C -.18279 -.99869 -3.67615
C 1.08770 -3.03562 -3.11697
C -.06741 -3.57020 -2.46857
C .10279 -4.53282 -1.44603
C -1.53399 4.16511 -1.19056
C -2.62889 3.31253 -1.52791
C -2.64888 2.71718 -2.81662
C -1.38578 2.51120 -3.47027
C -.21692 3.15676 -2.98068
C -.36896 4.20352 -2.03974
C 2.03565 4.06034 -1.51928
C .75611 4.53439 -1.19695
C -.11353 .42147 -3.79766
C -1.32439 1.15634 -3.94476
C 2.26266 -1.07311 -3.53028
C 2.27056 .31439 -3.25467
C 1.07938 1.07573 -3.42321
C 1.05073 2.47562 -3.08831
C 2.19385 3.08671 -2.58225
C -3.42973 2.75107 -.47795
C -4.47525 1.85291 -.80261
C -4.90594 .91237 .20977
C -2.98960 2.87638 .87550
C -3.65730 2.18281 1.91001
C -4.52413 1.08668 1.53520
C -1.11659 4.30443 .16531
C -1.70695 3.44946 1.13797
C .48002 3.19047 2.23413
C -.92308 2.91550 2.18355
C -1.52780 2.06963 3.15148
C -2.90373 1.75990 3.05646
C 1.26729 2.67733 3.27622
C .31932 4.52198 .17556
C 2.48398 3.53524 .81515
C 1.11180 3.82787 1.10855
C 4.28402 1.91041 1.22953
C 3.24091 2.71571 1.73921
C 2.62988 2.30168 2.96033
C 2.99778 3.78773 -.47709
C -2.41916 -.47355 4.00216
C -4.22687 -.06387 2.37871
C -3.31793 .40620 3.38234
C -1.10763 .00838 4.43247
C .70739 1.59955 4.08163
C -.68540 1.29707 4.02658
C -2.26129 -1.78854 3.46767
C -2.92221 -2.14661 2.27942
C -3.91720 -1.27988 1.73155
C -4.37954 -1.50401 .38003
C -4.90970 -.42415 -.37022
C -3.93312 -2.64616 -.32377
C -1.02849 -3.65145 1.71460
C -2.36570 -3.20344 1.46391
C -3.04038 -3.61591 .30378
C -.40053 -4.54761 .83741
C -.95378 -4.68122 -.47934
C -2.23835 -4.16774 -.75453
C 1.64705 .53984 4.13717
C 1.16260 -.78284 3.91041
C -.17710 -1.06667 4.26617
C -.86771 -2.17133 3.64954
C 1.16814 -2.74768 2.43455
C -.22778 -2.95412 2.69708
C 3.14466 -1.28440 2.50894
C 1.83204 -1.63076 2.97061
C 3.85376 -2.16470 1.67688
C 3.15390 -3.29343 1.10279
C 1.83925 -3.61392 1.51822
C 1.05875 -4.46493 .67719
C 4.96981 -.22042 .62861
C 4.53435 .60197 1.73653
C 3.60899 .07201 2.67030
C 2.84981 .98136 3.44528
C 4.64692 -1.58200 .60979
C 3.87385 2.75438 -1.01870
C 4.90523 .55662 -.59545
C 4.56560 1.89588 -.18190
C 3.10801 -1.95735 -2.73838
C 4.31722 -2.23220 -.62942
C 3.94419 -1.41242 -1.72611
C 4.14349 .01486 -1.65539
C 3.36296 .88042 -2.50107
C 3.34502 2.26094 -2.24956
C 1.35142 -4.50289 -.70259
C 3.46157 -3.34453 -.29737
C 2.47727 -3.78864 -1.21066
C 2.37440 -3.14932 -2.48482
