98 

C 4.82966 1.43728 -.38822
C 1.64668 4.16811 -.37114
C 2.89135 3.52202 -.48272
C 3.52154 3.15593 .72826
C 4.47942 2.07855 .77229
C .98063 4.27604 .86882
C 1.44547 3.56130 2.00033
C 2.76648 3.10411 1.93679
C -.92772 3.16226 2.67432
C .47465 2.86985 2.85584
C -1.86778 2.31881 3.28510
C -.43048 4.39762 .60346
C -2.67978 3.68777 .98178
C -1.38164 3.93326 1.51156
C 3.61605 -.79617 2.95676
C 4.40336 -.09118 2.01071
C 4.24894 1.31311 1.98499
C 3.19186 1.94669 2.69090
C .86967 1.65946 3.52060
C 2.25663 1.20473 3.43337
C 2.55120 -.15844 3.63778
C -1.47076 1.08316 3.84535
C -.13769 .69847 3.90430
C 4.79663 -.77605 .77717
C 4.99917 -.01060 -.39111
C 3.23090 -2.18223 2.74480
C 3.62136 -2.83092 1.60300
C 4.38248 -2.12062 .58926
C .43108 -4.40740 .55308
C 2.68203 -3.70210 .93072
C 1.38560 -3.95267 1.46250
C 1.87818 -2.35710 3.25104
C -.46564 -2.90290 2.82476
C .93567 -3.19399 2.63456
C -2.76074 -3.12748 1.91209
C -1.43984 -3.58535 1.96553
C -.97930 -4.28832 .82469
C .15063 -.74316 3.89517
C 1.48321 -1.12758 3.82614
C -2.53935 .11590 3.64953
C -2.24547 -1.24464 3.42788
C -.85825 -1.69986 3.50419
C -3.18358 -1.97875 2.68078
C 3.92256 -2.56803 -.66956
C 3.90029 -1.72287 -1.79560
C 4.58383 -.49078 -1.66606
C 4.19795 .65813 -2.46266
C 3.22044 .51509 -3.41463
C 2.87232 -3.54603 -.45925
C .62643 -4.26408 -.85419
C 1.78944 -3.66855 -1.36587
C 1.68631 -2.78491 -2.51097
C 2.79720 -1.84941 -2.76162
C 2.57518 -.76910 -3.61148
C 3.18008 2.77960 -1.69939
C 2.13180 2.61665 -2.70229
C 4.22085 1.82880 -1.64399
C 2.23686 1.53861 -3.58307
C 1.06133 .90695 -4.13078
C -1.29194 .54204 -4.13180
C -.22447 1.43484 -3.92955
C -.40735 2.58523 -3.06454
C .79471 3.20417 -2.49391
C .64025 4.05942 -1.41212
C -.64722 -4.04818 -1.45502
C -.80584 -3.18157 -2.52709
C .39442 -2.55655 -3.09525
C .20869 -1.39667 -3.94675
C 1.27557 -.50134 -4.14249
C -1.07787 -.86644 -4.13697
C -2.58955 .80442 -3.59273
C -2.80887 1.87519 -2.73007
C -1.69710 2.80745 -2.47314
C -1.79578 3.67882 -1.31833
C -.63097 4.26887 -.80456
C -2.87519 3.54665 -.40901
C -3.23445 -.48180 -3.40783
C -4.20888 -.63476 -2.45368
C -4.59187 .50528 -1.64279
C -3.90870 1.73813 -1.76116
C -3.92635 2.57079 -.62576
C -3.18849 -2.76473 -1.71854
C -2.14383 -2.59151 -2.72360
C -2.25183 -1.50372 -3.59177
C -4.22899 -1.81437 -1.64828
C -4.47866 -2.09020 .76593
C -3.52063 -3.16661 .70610
C -2.89518 -3.52014 -.51107
C -1.65018 -4.16754 -.41163
C -4.83386 -1.43675 -.38586
C -3.60709 .76072 2.97958
C -4.39843 .06574 2.02900
C -4.24404 -1.33811 1.98643
C -4.38182 2.11004 .62995
C -3.61673 2.80945 1.64828
C -3.22237 2.14907 2.78167
C -5.00312 .01107 -.37152
C -4.79637 .76362 .80457
