98 

C 3.52304 -.15377 -2.87465
C 3.58146 1.17859 -2.45847
C 4.39275 1.44783 -1.32379
C 4.13785 2.60935 -.49273
C 3.20991 3.52613 -.88513
C 2.39751 3.28694 -2.07002
C 2.45858 2.05377 -2.78028
C 2.41026 -.63317 -3.64588
C 1.25439 .13842 -3.82472
C 1.15146 3.83774 2.14767
C 2.34762 3.68465 1.44602
C 2.38763 4.18683 .10277
C 1.20504 4.57325 -.54882
C -1.22294 4.56844 -.54547
C -.00822 4.73945 .16866
C -.00543 4.42813 1.54968
C -.00045 -1.96840 -4.03541
C -.00309 -.55809 -4.04861
C 1.25970 1.52637 -3.36671
C -1.27253 1.52214 -3.36348
C -.00754 2.22239 -3.17683
C -.00925 3.45980 -2.45488
C 1.19491 3.95532 -1.88650
C -1.21385 3.95086 -1.88329
C 3.23964 2.58928 1.82424
C 4.22714 2.20621 .90129
C 4.77229 .88525 .89703
C 2.79870 1.60928 2.81351
C 3.47134 .39307 2.88497
C 4.45107 .01114 1.90536
C -.69840 2.82000 3.08722
C .69793 2.82270 3.08579
C 1.43812 1.65051 3.33619
C -1.43393 1.64515 3.33916
C -.71989 .44892 3.68893
C .72914 .45165 3.68756
C 1.45238 -.81824 3.67349
C 2.80995 -.80254 3.33658
C -2.79695 -.81282 3.34235
C -1.43861 -.82365 3.67623
C -4.23205 2.19112 .91169
C -3.24294 2.57778 1.83257
C -2.79546 1.59908 2.81993
C -3.46352 .38040 2.89226
C -1.15826 3.83392 2.15141
C -2.40208 4.17775 .10922
C -2.35582 3.67665 1.45292
C 2.70555 -3.05460 2.42243
C 4.29136 -1.40389 1.62765
C 3.43234 -1.91152 2.64985
C .73481 -2.08105 3.56237
C 1.40396 -3.19210 3.01115
C -.71691 -2.08388 3.56374
C 2.68961 -3.63933 1.11167
C 3.34120 -3.03208 .03695
C 4.21094 -1.88976 .30695
C 4.52156 -.95571 -.77408
C 4.82323 .39739 -.47419
C 4.00195 -1.21305 -2.05171
C 1.47109 -3.89353 -1.44307
C 2.76665 -3.23412 -1.29587
C 3.19604 -2.38551 -2.32278
C .73086 -3.66903 -2.60670
C 1.14773 -2.70542 -3.58044
C 2.34410 -2.05339 -3.42029
C -.67539 -4.14260 2.18886
C .69727 -4.13999 2.18707
C 1.40915 -4.30809 .95853
C -1.38965 -4.31319 .96191
C -.72161 -4.35147 -.26532
C .73833 -4.34897 -.26708
C -1.38342 -3.19740 3.01420
C -2.75611 -3.24358 -1.28929
C -1.45883 -3.89884 -1.43961
C -.72221 -3.67171 -2.60498
C -3.19097 -2.39634 -2.31501
C -4.28069 -1.41939 1.63743
C -3.41719 -1.92404 2.65745
C -2.68704 -3.06473 2.42834
C -4.20150 -1.90438 .31651
C -3.32829 -3.04356 .04467
C -2.67225 -3.64906 1.11762
C -4.82518 .38029 -.46306
C -4.77223 .86834 .90818
C -4.44468 -.00476 1.91543
C -4.00077 -1.22692 -2.04231
C -4.51837 -.97124 -.76360
C -3.22437 3.51446 -.87656
C -3.52804 -.16588 -2.86636
C -3.59103 1.16637 -2.45014
C -4.40062 1.43304 -1.31349
C -4.14788 2.59514 -.48231
C -1.14484 -2.70934 -3.57755
C -2.34297 -2.06123 -3.41449
C -2.41513 -.64161 -3.63993
C -1.26258 .13384 -3.82150
C -2.47213 2.04520 -2.77436
C -2.41429 3.27831 -2.06393
