98 

C 1.48209 2.79829 -3.01591
C 1.50853 1.43198 -3.35035
C 2.75819 .71566 -3.11965
C 2.76020 -.72052 -3.11319
C 3.82479 -1.38276 -2.45856
C 3.63585 -2.67597 -1.85866
C 1.51250 -1.44315 -3.33702
C 1.48971 -2.80645 -2.98941
C 2.51694 -3.39192 -2.15166
C .26977 3.46120 -2.71728
C -.97319 -1.45770 -3.29239
C -2.23691 .70615 -3.22303
C -.95892 2.81936 -2.85768
C -.97771 1.43864 -3.30641
C .25066 .72765 -3.48980
C .25268 -.74419 -3.48283
C -3.38430 1.37512 -2.73716
C -3.26452 2.64160 -2.04845
C -2.07680 3.36250 -2.08899
C -1.81882 4.22140 -.98511
C 3.45264 -2.58348 1.81106
C 3.36450 -3.20538 .55067
C 4.13655 -2.64357 -.49540
C .53716 -4.40228 -1.58418
C 1.87532 -4.19576 -1.13146
C 2.16174 -3.97198 .22975
C -.45699 -4.64920 -.66656
C -.19633 -4.43358 .72644
C 1.05371 -4.01021 1.18119
C -1.80617 -4.22244 -.94610
C -3.25632 -2.65651 -2.02351
C -2.06644 -3.37415 -2.05746
C -2.23484 -.72885 -3.21615
C -.95052 -2.83439 -2.83097
C .27982 -3.47106 -2.68482
C -3.38014 -1.39702 -2.72428
C 4.81583 -1.40659 -.32603
C 4.19268 -1.39361 2.00091
C 4.79662 -.71729 .90703
C 3.54920 -.65741 3.07456
C 3.54749 .70901 3.06846
C 2.34848 -1.37385 3.45487
C 2.34432 1.42465 3.44168
C 1.15370 .75254 3.81219
C 1.15594 -.70200 3.81967
C 1.07570 -3.17792 2.37235
C 2.30112 -2.56030 2.71223
C -1.41704 -3.97422 1.32740
C -1.42601 -3.06017 2.37240
C -.13744 -2.64188 2.92369
C -.06890 -1.41281 3.67529
C -1.26502 -.67785 3.88750
C 4.71220 -.67733 -1.58759
C 4.18910 1.43779 1.98808
C 4.79496 .75389 .90033
C 4.81248 1.43266 -.33900
C 4.71069 .69202 -1.59401
C 3.44557 2.62334 1.78730
C 3.35559 3.23425 .52152
C 4.12965 2.66601 -.51950
C 3.62868 2.68486 -1.88303
C 2.50737 3.39426 -2.18287
C 1.04243 4.03697 1.14357
C 2.15045 3.99392 .19306
C 1.86299 4.20449 -1.16969
C -.20881 4.45212 .68514
C -.47069 4.65435 -.70908
C .52409 4.40235 -1.62389
C 2.29388 2.60434 2.68814
C -1.26700 .72309 3.88025
C -.07284 1.45892 3.66053
C -.14440 2.68089 2.89795
C 1.06742 3.21531 2.34240
C -1.43404 3.09050 2.34309
C -1.42812 3.99473 1.29022
C 3.82107 1.38700 -2.47139
C -3.36874 .01688 3.22867
C -2.54778 1.17807 3.39230
C -2.64312 2.27643 2.54033
C -4.37187 .01084 2.28411
C -4.58931 1.18124 1.47815
C -3.71496 2.28316 1.54493
C -3.70816 -2.26655 1.56660
C -2.63697 -2.24730 2.56201
C -2.54469 -1.14056 3.40351
C -4.58586 -1.16775 1.48924
C -4.87214 -1.42388 -.92911
C -4.07853 -2.62377 -.85853
C -3.54243 -3.07765 .37112
C -2.43428 -3.94200 .29120
C -5.15702 -.72881 .22882
C -4.87665 1.41425 -.94244
C -4.46941 .68274 -2.13303
C -4.46733 -.70233 -2.12669
C -5.15926 .72892 .22182
C -2.44578 3.95032 .25478
C -3.55175 3.08378 .34246
C -4.08675 2.61722 -.88317
