98 

C -4.70910 .91539 .47701
C -4.47963 1.74728 -.62806
C -3.96201 -.80850 2.62807
C -3.88493 .53913 2.80287
C -4.33609 1.43160 1.75930
C -2.87201 -1.66048 3.08098
C -2.71175 1.12182 3.42661
C -1.58246 .32186 3.78540
C -1.67448 -1.11432 3.61474
C -1.62150 -3.46983 1.96657
C -2.84172 -2.79746 2.26423
C .91380 -4.24052 .95472
C .88421 -3.48422 2.12207
C -.42329 -3.05543 2.63622
C -.48374 -1.89896 3.50218
C .72360 -1.27745 3.88135
C -3.57751 2.61219 1.88188
C -3.29685 3.42155 .75191
C -3.78842 2.99230 -.50089
C -2.10244 4.19421 .76562
C -2.54555 2.39933 2.90565
C .80939 .12390 4.01759
C -.30440 .95346 3.81328
C -.08475 2.26119 3.21668
C -1.24185 2.98806 2.77792
C -1.09442 4.00010 1.81711
C -1.42694 4.50543 -.42432
C -1.76517 3.83422 -1.64592
C -2.99071 3.17372 -1.67883
C -3.19867 2.03568 -2.54073
C -2.12987 1.50272 -3.30937
C -2.24734 .16592 -3.68673
C -.04190 4.73673 -.07899
C -.67757 3.35773 -2.51612
C -.80786 2.11285 -3.24334
C .93395 4.52312 -1.00520
C .60810 3.83061 -2.25376
C .17159 4.30376 1.28259
C 1.33684 3.59855 1.66509
C 1.22393 2.59955 2.68998
C -4.14423 1.18842 -1.92597
C -3.28748 -.67091 -3.17481
C -4.14232 -.20687 -2.15095
C -2.78806 -2.01998 -3.17616
C -3.20321 -2.89521 -2.20358
C .03416 -4.38447 -1.17599
C -2.24557 -3.82327 -1.63924
C -.89426 -3.84598 -2.07593
C -1.39431 -1.98735 -3.58342
C .94620 -2.39672 -3.03948
C -.43283 -2.83956 -3.03852
C 3.18023 -2.64194 -2.03457
C 1.90722 -3.16285 -2.25553
C 1.43946 -4.09502 -1.29304
C .21312 -.12696 -3.75190
C -1.07152 -.64072 -3.90460
C 3.93543 1.37861 -2.33822
C 2.80324 .91394 -3.04385
C 2.60202 -.51626 -3.14557
C 1.27407 -1.05201 -3.42592
C 3.56220 -1.36397 -2.57345
C .35825 1.31362 -3.51807
C 1.76072 3.11026 -2.65281
C 1.66427 1.82075 -3.20373
C -4.08596 -2.44254 -1.14810
C -4.49884 -1.09958 -1.05045
C -4.74337 -.54199 .27614
C -3.74865 -3.20621 .01533
C -3.90521 -2.65447 1.26254
C -4.49309 -1.35877 1.39411
C -2.57004 -4.00609 -.27088
C -1.54427 -4.17250 .69677
C -.27560 -4.51162 .20604
C 4.79132 -1.75201 -.62403
C 3.86924 -2.84409 -.79306
C 3.17065 -3.39030 .30463
C 1.99851 -4.11152 .00195
C 4.98564 -1.21867 .63658
C 5.04244 1.05521 -.29956
C 4.80187 .49186 -1.62370
C 4.64015 -.87065 -1.76877
C 5.08672 .22538 .80109
C 2.81530 3.43892 -1.71316
C 4.34102 2.30522 -.21350
C 3.85926 2.58411 -1.54271
C 2.90748 -.65264 3.47547
C 2.13702 .54432 3.66669
C 2.35519 1.69656 2.91052
C 4.00063 -.63415 2.64804
C 4.36841 .59734 1.99230
C 3.52604 1.72909 2.03501
C 3.54686 2.63890 .90585
C 2.45245 3.57501 .72045
C 2.23578 4.09146 -.57428
C 3.27812 -2.76379 1.61237
C 2.11764 -2.78152 2.50441
C 2.01121 -1.76913 3.45693
C 4.23447 -1.73989 1.76069
