98 

C 1.15314 4.43667 -1.01397
C -.08483 4.35227 -1.68702
C 3.26697 3.69602 .73237
C 2.13016 4.24955 1.24639
C 1.12085 4.77646 .36076
C 3.88632 2.57840 1.41229
C 3.19676 1.91611 2.46205
C 3.54682 .57997 2.69953
C -.11374 4.73120 1.07140
C -1.34702 4.67601 .39506
C -1.31634 4.57528 -1.02751
C -2.43842 4.06874 1.08170
C .09410 3.94917 2.28057
C -.89852 3.06563 2.74709
C -2.20689 3.29790 2.25526
C -2.89865 1.02276 2.86482
C -3.19983 2.28338 2.32934
C -3.79540 -.02461 2.49497
C 1.87188 2.36434 2.86022
C 1.45750 3.61566 2.36925
C -1.14873 -.68398 3.36171
C 2.58300 -.34622 3.22728
C 1.24047 .01049 3.42756
C .86389 1.40567 3.28828
C -.52583 1.74852 3.22264
C -1.54070 .70322 3.27446
C -3.53912 3.47788 .37170
C -3.45754 3.29329 -1.03378
C -2.32500 3.80530 -1.71072
C -4.06944 2.12231 -1.58920
C -4.06888 2.42808 1.19318
C -4.66473 .09452 1.39862
C -4.71032 1.30576 .63841
C -4.76968 1.20185 -.78995
C -3.39555 1.37592 -2.63108
C -2.11599 1.71757 -3.06909
C -1.66987 3.02620 -2.72116
C -.30417 3.33966 -2.70508
C .26379 1.03589 -3.38449
C .67679 2.38356 -3.02618
C -3.77960 .00987 -2.51363
C -2.87720 -1.03503 -2.87865
C -1.51802 -.71125 -3.27983
C -1.12999 .67752 -3.36395
C -.87133 -3.07170 -2.74871
C -.50004 -1.75327 -3.22170
C .88932 -1.40545 -3.27806
C 1.26163 -.00870 -3.41394
C 2.60107 .35339 -3.20468
C .12254 -3.95177 -2.27568
C 1.48519 -3.61321 -2.35535
C 1.89816 -2.36014 -2.84365
C -2.18194 -3.30804 -2.26530
C -3.17752 -2.29678 -2.34512
C -4.77086 -1.21972 .76543
C -4.70144 -1.32349 -.66287
C -4.65470 -.11220 -1.42248
C -4.05285 -2.44395 -1.21404
C 2.97994 1.66614 -2.77467
C 2.02589 2.65918 -2.57278
C 2.27345 3.65908 -1.53258
C 4.14715 1.54213 -1.94479
C 4.30018 2.38931 -.86972
C 3.38880 3.48577 -.69926
C 4.45866 .13688 -1.81917
C 4.84118 -.42343 -.57377
C 4.61146 -1.80970 -.40726
C 3.21854 -1.90652 -2.43671
C 3.56474 -.56887 -2.67157
C 3.90400 -2.56593 -1.38227
C 4.83616 .43944 .60936
C 4.60240 1.82489 .44151
C 4.44833 -.12234 1.85274
C 3.39712 -3.47462 .72650
C 4.30335 -2.37510 .90256
C 4.14107 -1.52889 1.97698
C 2.27720 -3.65226 1.55313
C 2.01988 -2.65381 2.59253
C 2.96902 -1.65746 2.80023
C 1.14026 -4.77345 -.34829
C 2.15340 -4.24360 -1.22740
C 3.28456 -3.68571 -.70582
C -.08021 -4.35369 1.69120
C 1.16240 -4.43378 1.02686
C -2.41789 -4.08032 -1.09287
C -1.30691 -4.58098 1.02337
C -1.32804 -4.68317 -.39933
C -.08956 -4.73399 -1.06741
C -4.07232 -2.13790 1.56840
C -2.32267 -3.81525 1.70008
C -3.45261 -3.30711 1.01628
C -3.52451 -3.49296 -.38983
C .66663 -2.38339 3.03703
C .24638 -1.03758 3.39177
C -.30984 -3.34302 2.70865
C -1.67670 -3.03430 2.71553
C -2.12963 -1.72703 3.06042
C -3.40754 -1.38904 2.61452
