98 

C 3.89419 1.87553 2.19313
C 4.15557 .54729 2.35056
C 4.71140 -.22550 1.25855
C 4.36676 -1.58339 1.52658
C 4.26328 -2.47749 .48713
C 2.73577 2.45068 2.82166
C 1.14196 -4.27910 1.36570
C 3.25731 -3.52147 .54564
C 2.33266 -3.57891 1.61291
C 3.37795 -1.60677 2.60346
C 1.06102 -2.08787 3.21053
C 2.31678 -2.50878 2.61441
C -1.38199 -2.44606 3.34365
C -.09925 -2.95869 3.04550
C -.04347 -4.04453 2.15485
C .12890 3.43239 2.81624
C .35122 2.15212 3.34931
C 1.71906 1.64555 3.37224
C 1.96399 .21285 3.48010
C 3.21860 -.27740 3.07654
C -.76941 1.25313 3.45776
C -.49275 -.17124 3.70941
C .86716 -.71390 3.58059
C -1.55149 -1.05635 3.67501
C .74339 -4.60464 .04959
C 1.50845 -4.19690 -1.05759
C 2.83976 -3.80287 -.78493
C 3.56145 -2.90776 -1.66899
C 2.93809 -2.44092 -2.79329
C -.69732 -4.60812 .00631
C -2.72547 -3.68259 -.86607
C -1.38272 -4.08792 -1.09551
C -.62477 -3.47373 -2.19433
C .81065 -3.62968 -2.21112
C 1.56062 -2.80855 -3.06883
C -2.54177 -2.88131 2.66795
C -2.42956 -3.77785 1.56863
C -1.17340 -4.37208 1.34225
C -3.25934 -3.55508 .42866
C 3.62056 1.19182 -2.54059
C 3.91653 -.16919 -2.41018
C 3.13133 -1.06460 -3.19580
C 1.93637 -.63397 -3.81256
C -2.17999 .21188 -3.64121
C -.84468 -.06327 -3.82807
C .11786 1.04232 -3.73261
C 1.52517 .71704 -3.75384
C 2.45305 1.63378 -3.22922
C -3.35926 -2.70644 -1.71282
C -2.63877 -2.06218 -2.71280
C -1.23655 -2.41872 -2.95496
C -.40327 -1.45814 -3.63579
C .96016 -1.71163 -3.72338
C -3.10286 -.77052 -3.11133
C 4.51562 -.64779 -1.15911
C 4.38129 -2.01725 -.86187
C 3.89844 2.14130 -1.47831
C 4.41418 1.70712 -.23415
C 4.72535 .28434 -.05725
C 4.08567 2.49559 .89306
C 2.94150 3.17678 -1.55782
C 2.50456 3.87409 -.41192
C 3.16233 3.57761 .80304
C 1.15597 4.12478 2.07451
C 2.42337 3.62391 2.05353
C -1.12472 4.28436 -1.31373
C .24580 4.10428 -1.50319
C 1.13819 4.38886 -.38897
C .56505 4.67111 .86977
C -2.64041 1.51095 -3.25070
C -1.71308 2.54889 -2.98688
C -.30042 2.31378 -3.22856
C .67028 3.19284 -2.57512
C 2.01193 2.84851 -2.62593
C -2.10719 3.53201 -2.06503
C -2.93359 3.83227 .08455
C -1.68109 4.54085 -.02262
C -.84558 4.62091 1.06848
C -4.17575 2.01664 1.05823
C -3.22240 3.05865 1.21957
C -3.81557 1.34153 -2.48521
C -4.64157 1.61897 -.20146
C -4.07896 2.19776 -1.38641
C -3.24913 3.32665 -1.22672
C -4.34468 -2.00893 -.92554
C -4.96185 .19720 -.13169
C -4.67771 -.66085 -1.21707
C -4.10115 -.08826 -2.40322
C -3.47885 -1.76576 2.62060
C -4.72729 -.23718 1.20617
C -4.34030 -1.56953 1.49551
C -4.24399 -2.47923 .40919
C -1.11882 3.78421 2.23168
C -2.20928 2.91927 2.27146
C -2.06168 1.66258 2.98576
C -4.16651 .86455 1.93197
C -3.12953 .67038 2.85307
C -2.87064 -.66464 3.25086
