98 

C -4.67010 2.28947 .23142
C -2.71281 .69257 3.56797
C -3.50893 1.41649 2.67045
C -4.57275 .70634 2.06921
C -5.17838 1.15869 .83676
C -2.71222 -.71984 3.56208
C -4.66819 -2.29042 .21261
C -5.53392 -.00015 .04629
C -5.17756 -1.16519 .82724
C -1.39258 -1.17533 3.93050
C -3.50793 -1.43695 2.65883
C -4.57230 -.72268 2.06331
C -3.55013 -3.00427 .80966
C -.72922 -2.17597 3.19887
C -2.90352 -2.57113 1.96827
C -4.48234 -2.30303 -1.22074
C -4.70919 -1.15513 -1.96056
C -5.29585 .00562 -1.33066
C -4.71037 1.17200 -1.95102
C -4.48471 2.31412 -1.20193
C -3.31642 -3.10006 -1.50155
C -2.41006 -2.72788 -2.51225
C -1.15099 -3.34070 -2.46135
C 1.38219 -1.17408 3.93239
C .72093 -2.17542 3.19981
C -1.47150 -2.87331 2.15080
C .73895 -3.54158 1.13362
C -.74406 -3.54191 1.13278
C -1.44106 -3.89200 -.09704
C -2.79804 -3.58562 -.25120
C -.71693 -4.02051 -1.30713
C -1.15364 3.36488 -2.43578
C -3.31933 3.11428 -1.47679
C -2.41275 2.75123 -2.49086
C -2.49874 -1.41146 -3.12103
C -3.68258 -.69404 -2.89048
C -3.68342 .71952 -2.88485
C -.00144 -2.74425 -3.08983
C -.00148 -1.41217 -3.48286
C -1.28692 -.69470 -3.47935
C -1.28767 .72741 -3.47390
C -2.50064 1.43980 -3.10996
C -.00268 1.44579 -3.47180
C -.00334 2.77450 -3.06887
C -.71991 4.03525 -1.27598
C -1.44380 3.89518 -.06680
C -2.80066 3.58943 -.22265
C -3.55228 2.99894 .83378
C -1.47346 2.85789 2.17310
C -2.90540 2.55653 1.98871
C .71073 4.03537 -1.27513
C 2.79096 3.59175 -.21965
C 1.43387 3.89636 -.06524
C .73602 3.53581 1.16109
C -.74675 3.53504 1.16015
C 1.46223 2.85927 2.17508
C -.73114 2.15288 3.21599
C -1.39360 1.14606 3.93998
C 2.40562 2.75255 -2.48812
C 1.14612 3.36483 -2.43436
C 3.31120 3.11634 -1.47312
C 2.49514 1.44136 -3.10739
C 3.67871 .72198 -2.88120
C 2.49577 -1.40941 -3.11895
C 1.28356 -.69376 -3.47828
C 1.28316 .72821 -3.47263
C 3.67919 -.69156 -2.88726
C 3.54207 3.00170 .83763
C 2.89446 2.55880 1.99197
C .71897 2.15356 3.21693
C 1.38118 1.14721 3.94165
C .68053 -.01556 4.38156
C -.69264 -.01618 4.38072
C 5.16977 -1.16245 .83249
C 4.56318 -.72007 2.06814
C 3.49912 -1.43478 2.66283
C 2.70184 -.71777 3.56492
C 4.66282 -2.28818 .21710
C 2.70124 .69462 3.57064
C 3.49801 1.41887 2.67402
C 4.56272 .70904 2.07389
C 4.66109 2.29246 .23644
C 5.52620 .00300 .05206
C 5.16927 1.16173 .84214
C 4.47832 -2.30032 -1.21651
C 4.70529 -1.15217 -1.95602
C 5.29017 .00898 -1.32517
C 4.70457 1.17513 -1.94594
C 4.47717 2.31699 -1.19702
C 1.14803 -3.33912 -2.46018
C 3.31290 -3.09762 -1.49849
C 2.40721 -2.72550 -2.50990
C 2.89677 -2.56962 1.97140
C 1.46488 -2.87243 2.15253
C 3.54470 -3.00264 .81311
C 2.79379 -3.58401 -.24865
C 1.43698 -3.89099 -.09578
C .71365 -4.01949 -1.30647
