98 

C -5.18202 .72555 .05400
C -2.44247 3.91062 -.13842
C -3.56334 3.06982 -.15711
C -4.00802 2.59206 1.10046
C -4.83769 1.41214 1.20158
C -1.63071 4.03843 1.02371
C -1.85865 3.22173 2.14109
C -3.12351 2.60548 2.21477
C -.72007 2.64772 2.84145
C -.95310 1.43476 3.59403
C .14453 .71804 4.03966
C .62055 2.99987 2.44503
C .82883 3.85751 1.27334
C -.29422 4.37016 .61823
C -4.83448 -1.42390 1.19037
C -4.42251 -.70451 2.37948
C -5.18045 -.72986 .04860
C -4.42405 .68489 2.38531
C -3.32186 1.38037 2.96432
C -3.31885 -1.40231 2.95300
C -2.22194 -.73713 3.50486
C -2.22355 .71297 3.51111
C -2.43425 -3.90840 -.16866
C -3.55688 -3.06969 -.18048
C -4.00214 -2.60136 1.08057
C -3.11781 -2.62161 2.19452
C .14571 -.74233 4.03320
C -.95042 -1.45744 3.58142
C -.71481 -2.66470 2.82001
C -1.85213 -3.23575 2.11597
C -1.62200 -4.04340 .99221
C -3.82413 -2.27801 -1.37737
C -4.68244 -1.17093 -1.24428
C -4.50880 .00572 -2.05120
C -2.83216 -2.27251 -2.45170
C -2.74594 -1.14905 -3.27357
C -3.55296 .01025 -3.04897
C -.31857 -4.52958 -.84591
C -1.57962 -4.05587 -1.32770
C -1.65605 -3.14187 -2.38393
C .82341 -4.29575 -1.57006
C .76477 -3.40619 -2.69903
C -.41137 -2.74591 -3.04213
C -.28496 -4.36984 .58405
C .83713 -3.86061 1.24288
C .62629 -3.01221 2.42097
C -3.82829 2.28592 -1.35980
C -2.83561 2.28970 -2.43321
C -4.68475 1.17645 -1.23542
C -2.74742 1.17251 -3.26331
C -.41631 2.77231 -3.01992
C -1.66142 3.16082 -2.35859
C -1.58762 4.06776 -1.29611
C .75830 3.43279 -2.67248
C .81451 4.31344 -1.53648
C -.32779 4.54040 -.81089
C -1.46515 .71528 -3.77445
C -.27994 1.44561 -3.59902
C 2.17552 1.45779 -3.17344
C 2.04333 2.79825 -2.79693
C .97308 -.70528 -3.58357
C .97222 .73875 -3.57817
C 4.29502 -1.37663 -1.91661
C 3.36733 -.70620 -2.74379
C 3.36651 .73878 -2.73873
C 4.29291 1.40529 -1.90657
C -.27755 -1.41455 -3.61086
C -1.46411 -.68534 -3.78058
C 2.17805 -1.42450 -3.18418
C 2.04874 -2.76798 -2.81804
C 3.95495 2.66866 -1.30603
C 2.88344 3.36788 -1.77155
C 4.99543 1.42880 .33025
C 4.19766 2.60011 .11802
C 4.87621 .73245 1.51692
C 4.99817 -1.41587 .31951
C 5.07704 -.67695 -.93708
C 5.07607 .69987 -.93201
C 4.87738 -.72932 1.51147
C 2.89056 -3.34367 -1.79739
C 4.20310 -2.58750 .09848
C 3.96048 -2.64547 -1.32606
C 2.30652 -.01004 3.84910
C 1.46904 -1.18314 3.80073
C 1.74219 -2.24864 2.92303
C 3.50575 -.00652 3.21088
C 3.93212 -1.18453 2.48896
C 3.03850 -2.24871 2.23642
C 3.19808 -2.99269 1.00463
C 2.08882 -3.78810 .49680
C 2.06363 -4.08687 -.88164
C 2.05485 4.10173 -.84963
C 2.08059 3.79250 .52639
C 3.19187 2.99561 1.02760
C 3.03466 2.24201 2.25368
C 1.73841 2.23458 2.94071
C 1.46730 1.16234 3.81044
C 3.93023 1.17790 2.49806
