98 

C 4.28125 .29121 -2.41428
C 4.40466 -1.05271 -2.14574
C 3.39644 -1.96434 -2.61736
C 1.13068 -3.58768 -2.40581
C -.30640 -1.82767 -3.29448
C 1.01098 -2.37064 -3.09713
C 2.19777 -1.52107 -3.21015
C -1.67775 .14584 -3.76728
C -.41832 -.41918 -3.70316
C .73576 .47885 -3.61944
C 2.04269 -.09461 -3.44758
C 3.10463 .76090 -3.09529
C 5.10461 -.55868 .15993
C 5.06681 .86797 -.15090
C 4.82698 -1.49058 -.81759
C 4.65408 1.28165 -1.41486
C 3.75468 2.37975 -1.53269
C 4.59222 1.56285 1.00080
C 3.71938 2.66723 .90283
C 3.29501 3.09477 -.41714
C -.04687 4.19085 -1.77103
C 1.26401 3.71096 -1.77551
C 2.07060 3.87457 -.57911
C 1.44689 4.37274 .57518
C -1.89812 1.55565 -3.59478
C -.81092 2.41654 -3.32126
C .53409 1.87611 -3.35448
C 1.58412 2.64026 -2.71448
C 2.84624 2.08108 -2.63239
C -1.08099 3.57175 -2.56865
C 3.50375 .76619 3.04535
C 4.57405 -.74939 1.48239
C 4.42269 .56633 2.05445
C 2.75366 2.00313 3.10352
C 1.76390 3.80779 1.87130
C 2.85539 2.95558 2.04818
C 2.63959 -.31202 3.44525
C 2.64412 -1.55430 2.79446
C 3.66934 -1.79206 1.77854
C 3.45347 -2.81462 .77534
C 4.08371 -2.66970 -.48002
C 1.43090 -2.33727 2.82992
C 1.32044 -3.48624 1.94071
C 2.28496 -3.67677 .86679
C .07588 -4.11665 1.82467
C 1.42631 .27742 3.89492
C .22440 -.40056 3.84808
C .24407 -1.79017 3.43080
C -2.23839 -1.70766 3.40562
C -1.03024 -2.45526 3.25216
C -1.09485 -3.61292 2.47802
C .53427 3.60729 2.57748
C .34167 2.45956 3.36138
C 1.50156 1.71378 3.68570
C -.95546 1.81619 3.37417
C -1.00829 .40064 3.77213
C -2.19559 -.27940 3.63045
C -.35820 -4.72364 .59517
C .48568 -4.72140 -.48341
C 1.85382 -4.33644 -.30457
C 2.29249 -3.86627 -1.59193
C 3.38785 -3.06464 -1.68187
C -1.75976 -4.43478 .40835
C -2.22883 -3.93461 -.82264
C -3.43332 -3.19285 -.78986
C -3.38090 -1.98493 2.63990
C -3.35747 -3.02249 1.65496
C -2.23977 -3.87284 1.63494
C -4.02630 -2.78407 .41721
C -1.26959 -3.65905 -1.89485
C .01659 -4.17790 -1.75320
C -3.71971 -2.19984 -1.79962
C -2.75163 -1.83925 -2.74523
C -1.45262 -2.51223 -2.76396
C -2.85468 -.53926 -3.30325
C -4.58487 -1.21737 -1.21162
C -4.78211 1.15283 -.71674
C -4.57524 .12836 -1.67032
C -3.76096 .41985 -2.81186
C -4.07228 -.72743 2.37886
C -4.79863 .84558 .67499
C -4.74001 -.49743 1.13865
C -4.73078 -1.53234 .16798
C -.53444 4.13567 1.78787
C -1.79852 3.54824 1.77762
C -2.04041 2.39574 2.64953
C -4.10708 1.89291 1.36328
C -3.26116 1.61503 2.44781
C -3.33805 .30821 2.99534
C -2.04406 4.28805 -.57734
C -.65969 4.69555 -.58564
C .05905 4.70287 .59087
C -3.75896 2.90658 .39135
C -2.62419 3.74384 .57966
C -3.16125 1.73365 -2.99121
C -4.15476 2.45854 -.87693
C -3.35370 2.76009 -2.02556
C -2.32368 3.70580 -1.86579
