98 

C 3.76207 1.23402 2.53053
C 4.12872 -.08283 2.14760
C 4.92891 -.21733 .97540
C 4.96958 -1.43069 .26489
C 4.30347 -2.55079 .77902
C 3.50288 -2.41681 1.93880
C 3.29697 -1.17174 2.57718
C 2.63424 1.46210 3.31131
C 1.68753 .41782 3.59673
C 4.10021 -1.91912 -1.97085
C 3.48658 -3.13392 -1.45600
C 4.87542 -1.12837 -1.15551
C 3.62911 -3.46965 -.12410
C 2.48524 -3.99893 .58150
C 1.27797 -4.32479 -.09662
C .15672 -4.48654 .71220
C -.02828 2.17317 3.73511
C .30284 .80912 3.83986
C 2.01192 -.91029 3.23440
C -.42640 -1.54819 3.45318
C .93969 -1.91695 3.18675
C 1.20023 -3.16205 2.50952
C 2.43186 -3.37583 1.84993
C .12652 -3.94557 2.03677
C .22586 2.52195 -3.50761
C 1.51653 2.02889 -3.36308
C 4.81102 .31239 -1.29497
C 3.15461 -1.30131 -2.88973
C 3.02761 .07822 -3.02861
C 3.95225 .92746 -2.25747
C 1.75398 .60159 -3.50117
C 2.00962 -2.15508 -2.98575
C -.41154 -2.43824 -2.89041
C .74678 -1.66934 -3.31437
C .63219 -.27467 -3.68981
C -2.83204 -2.47998 -2.49452
C -1.73342 -1.88958 -3.13454
C -1.88229 -.53758 -3.64310
C -.70124 .27643 -3.88770
C -.85373 1.66805 -3.89260
C 1.08924 -3.84927 -1.47165
C 2.18550 -3.26817 -2.09611
C -1.17797 -4.42437 .17353
C -1.38736 -3.95329 -1.16811
C -.24420 -3.50286 -1.94820
C -2.64912 -3.44939 -1.45965
C 3.60164 2.25813 -2.01610
C 2.39224 2.81717 -2.56685
C -.28750 3.53398 -2.61818
C .48488 3.99802 -1.55306
C 1.88171 3.75810 -1.65644
C -.12843 4.17307 -.24828
C .75468 4.17475 .92116
C .19067 3.91969 2.16999
C -1.69454 3.34048 -2.48714
C -2.33508 3.47982 -1.25772
C -1.53340 3.91174 -.10129
C -3.29394 2.94952 1.38494
C -2.06251 3.65707 1.22470
C -1.19031 3.61948 2.31448
C -3.17248 1.53727 -3.21293
C -2.05866 2.29420 -3.42451
C -4.00792 1.80562 -2.05876
C -3.58959 2.72932 -1.07128
C -4.06607 2.50262 .23429
C -3.11627 .11934 -3.43556
C 3.83652 2.88250 -.75063
C 4.42969 2.15111 .29734
C 4.96139 .87295 -.01122
C 3.94684 2.37671 1.61845
C 2.74187 3.77224 -.49554
C 2.20452 3.92847 .78003
C 2.91619 3.29589 1.85785
C .89373 3.14162 3.18241
C 2.19553 2.81004 3.01384
C -4.42123 1.03200 1.97026
C -3.47857 2.03433 2.42663
C -2.37997 1.68529 3.28686
C -1.32434 2.58511 3.32396
C -4.27845 -.25754 2.38725
C -4.64386 .58225 -1.70346
C -4.95074 .27829 -.36077
C -4.75506 1.32088 .58317
C -4.44013 -2.09785 -.82538
C -4.01759 -1.73579 -2.16863
C -4.14441 -.44718 -2.60916
C -4.55570 -1.35491 1.47661
C -4.85285 -1.11483 .09628
C -2.03383 -4.02583 1.20510
C -3.73752 -2.42358 1.87206
C -3.27235 -3.37328 .92752
C -3.63266 -3.20302 -.42106
C -2.11272 .29805 3.58724
C -.76320 -.16215 3.74746
C -3.13933 -.63767 3.22423
C -2.83759 -1.95420 2.94372
C -1.49594 -2.44737 3.06482
C -1.20502 -3.61191 2.33893
