98 

C 1.53031 2.26074 3.49037
C 2.15183 3.03819 2.47869
C 3.42699 2.61717 2.04907
C 3.88147 2.87873 .69797
C 3.13120 3.67181 -.13558
C .09945 2.20099 3.59470
C -.73654 2.91556 2.76078
C -.13868 3.72428 1.68990
C 1.28822 3.78988 1.56589
C 1.83732 4.18338 .31615
C -2.35147 3.76559 .60503
C -.95886 4.04176 .55047
C -3.70231 .59496 2.74983
C -2.50452 1.15911 3.17643
C -2.13337 2.47862 2.68400
C -2.95413 3.08066 1.73529
C 4.30561 1.27093 -1.12890
C 3.54902 2.13526 -2.02558
C 4.51213 1.70250 .18773
C 3.04355 3.35132 -1.52229
C 1.78435 3.90843 -1.98592
C 1.12558 3.34274 -3.04090
C 1.65766 2.14735 -3.65465
C 2.85648 1.54816 -3.17289
C 3.00406 .18489 -3.41979
C -.37875 4.20254 -.74549
C 1.02522 4.34692 -.82018
C -.31751 3.22863 -3.01526
C -1.08796 3.69059 -1.90552
C 3.85271 -.64964 -2.59397
C 4.41008 -.16873 -1.39730
C 4.59447 -1.10626 -.30088
C 3.36019 -1.98024 -2.71364
C 3.56030 -2.87529 -1.68722
C 4.21564 -2.45157 -.49591
C .15584 -4.30171 -1.34568
C 2.49133 -3.79895 -1.34476
C 1.24534 -3.75598 -2.02253
C .55640 1.35175 -4.03730
C .61701 -.06093 -4.01836
C 1.90176 -.61027 -3.87967
C 2.07885 -1.93852 -3.40848
C -.36792 -2.17461 -3.18488
C .98733 -2.71521 -3.02078
C 4.63372 -.61175 1.07635
C 4.61486 .76584 1.28912
C 3.65061 -3.25125 .58220
C 3.55911 -2.74178 1.84289
C 4.12344 -1.44192 2.13266
C 2.54345 -4.02673 .05114
C 1.34825 -4.20863 .79581
C .20677 -4.52857 .05916
C 3.37071 -.89470 3.18220
C 3.24983 .51373 3.33450
C 3.95081 1.34006 2.42951
C 2.04608 1.01602 3.89241
C 1.17049 -3.51584 2.06699
C 2.32417 -2.88698 2.60675
C 2.21763 -1.77633 3.43782
C -.12993 -3.05752 2.46807
C .94616 -1.25172 3.78773
C .91627 .12582 4.16686
C -1.10752 -4.31823 .59716
C -1.30525 -3.52447 1.73124
C -.24650 -1.88139 3.30787
C -2.59294 -2.85753 1.88047
C -2.68752 -1.66706 2.69971
C -1.49889 -1.12907 3.33752
C -1.47311 .25913 3.65035
C -.25087 .86106 4.03771
C -3.79984 -.82657 2.53468
C -4.67744 -1.88319 -.79984
C -4.61585 -2.10234 .63850
C -4.77897 -1.03591 1.49653
C -4.90809 -.62018 -1.28663
C -3.58049 -3.06510 .89375
C -1.98831 -4.20548 -.53647
C -3.67310 -2.71753 -1.42122
C -3.20347 -3.59572 -.39433
C -.65573 2.03045 -3.65062
C -1.83121 1.31002 -3.31809
C -1.82105 -.13105 -3.37897
C -.54950 -.83950 -3.64238
C -4.03008 -.09514 -2.31804
C -2.92668 -.83851 -2.82373
C -2.76861 -2.21587 -2.38622
C -1.48391 -2.86568 -2.53558
C -1.19990 -3.95809 -1.70097
C -4.25537 2.68249 -.14631
C -3.08682 3.44614 -.54573
C -2.40015 3.17772 -1.76790
C -4.72496 1.67314 -.96060
C -3.95231 1.30318 -2.14047
C -2.80603 2.01253 -2.53976
C -5.20096 .25798 .98848
C -4.57706 1.26228 1.82332
C -4.17087 2.47206 1.28134
C -5.26755 .46104 -.38861
