98 

C 1.18722 -4.36062 -.68579
C 2.13375 -4.03159 .33425
C 3.37776 -3.51157 -.09650
C 4.21752 -2.78670 .77704
C 3.78236 -2.51924 2.08517
C -.17559 -4.42092 -.42248
C -.70284 -4.04742 .85354
C .20201 -3.62413 1.86576
C 1.63791 -3.67996 1.63178
C 2.48708 -2.93616 2.48476
C -1.65284 -2.55273 3.02703
C -.29424 -2.73665 2.90394
C -4.00299 -2.65380 -.25163
C -2.83443 -3.40567 -.32318
C -2.10467 -3.68651 .90870
C -2.58417 -3.12849 2.09989
C 5.13928 -.52307 .59047
C 4.73723 -.25891 1.96410
C 4.84541 -1.72832 .00410
C 4.02974 -1.20745 2.66793
C 2.62440 2.76860 2.42830
C 4.34722 1.12772 2.04646
C 3.21265 1.52507 2.77643
C .56497 -1.70178 3.45604
C 1.93458 -1.89085 3.33613
C 2.83566 -.80868 3.38777
C .93678 .74382 3.53749
C 2.35887 .51722 3.39002
C .05772 -.37262 3.66560
C 3.81665 1.90112 -1.89744
C 4.41091 .69703 -1.45818
C 4.97746 .70515 -.16190
C 4.62229 1.73712 .76479
C 3.00617 3.47789 1.27969
C 3.91962 2.88641 .34653
C 3.63380 3.01060 -1.03889
C 3.94640 -.55469 -2.04148
C 4.28367 -1.76375 -1.34000
C 2.73374 1.87957 -2.83406
C 2.18815 .69718 -3.30489
C 2.83685 -.56706 -2.94133
C 2.11305 -1.81441 -3.16495
C .85419 -1.75985 -3.79097
C 1.92292 3.05357 -2.59734
C -.25675 3.95106 -2.15517
C .52494 3.05251 -2.87906
C -.08393 1.84752 -3.44139
C .77928 .72306 -3.73257
C .18470 -.49404 -4.03056
C 1.85445 4.24378 .82536
C 1.58534 4.39159 -.56097
C 2.45603 3.73702 -1.49345
C .24018 4.55359 -.94363
C 2.40248 -2.97141 -2.35532
C 3.48045 -2.89776 -1.42725
C -.15445 -2.73509 -3.54733
C .09204 -3.77010 -2.64431
C 1.37505 -3.89509 -2.06252
C -1.43342 -2.08484 -3.53343
C -.89165 -4.07161 -1.64571
C -2.12388 -3.43305 -1.60470
C -2.42158 -2.41943 -2.61155
C -4.08684 .92670 -2.24350
C -3.31225 -.07434 -2.83367
C -3.46842 -1.43565 -2.35534
C -4.34437 -1.68339 -1.29163
C -1.66161 3.72307 -1.98699
C -2.30056 2.63153 -2.60129
C -1.50058 1.64532 -3.31672
C -2.05930 .32267 -3.48689
C -1.21224 -.69502 -3.90104
C -3.54680 2.26161 -2.06447
C -4.86548 1.76749 -.22000
C -4.97002 .66247 -1.15436
C -5.10194 -.63735 -.68122
C -4.79761 1.51222 1.13535
C -2.01556 4.11165 -.67034
C -3.06871 3.48428 .00636
C -3.97198 2.74649 -.79750
C .78840 4.00131 1.72441
C -1.52840 3.18800 1.97986
C -.56185 4.05895 1.32231
C -.81460 4.52252 .01633
C -3.73180 2.12661 1.92156
C -2.85175 3.06624 1.39083
C -3.55793 -1.23307 3.05061
C -2.20133 -1.30661 3.52001
C -1.38554 -.17550 3.63995
C -4.11299 -.00133 2.77293
C -3.29028 1.17833 2.89463
C -1.94197 1.11760 3.28224
C -1.06383 2.19252 2.89573
C .36768 2.04870 3.16586
C 1.22587 3.02217 2.67976
C -5.18060 -.88905 .74658
C -4.52520 -2.16059 .99518
C -3.78893 -2.35283 2.15351
C -4.99995 .16618 1.63577
