98 

C -2.94832 -2.22867 2.62643
C -1.99676 -3.23667 2.42245
C -2.22611 -4.10584 1.33269
C -1.12367 -4.80706 .71557
C .11698 -4.74920 1.29336
C .34671 -3.87955 2.43255
C -.63823 -3.01364 2.90976
C -2.60749 -1.02119 3.34364
C -1.26577 -.68432 3.61459
C 2.25795 -3.80503 -1.55414
C 1.17271 -4.46858 -.91784
C 1.29329 -4.72285 .46333
C 2.32403 -4.07197 1.22063
C 4.00657 -2.34278 1.29457
C 3.39138 -3.42627 .58890
C 3.38769 -3.37544 -.84263
C -1.92256 1.67151 3.47791
C -.90899 .71391 3.66367
C -.23786 -1.69495 3.40663
C 1.48622 .13960 3.39660
C 1.12725 -1.29444 3.35576
C 2.11686 -2.24660 2.88352
C 1.71230 -3.49531 2.40299
C 3.38554 -1.78745 2.41772
C -.14932 -4.33905 -1.50867
C -1.25876 -4.69713 -.71859
C -2.55823 -4.14733 -.96242
C -.35450 -3.39160 -2.59882
C -1.64927 -2.99154 -2.89171
C -2.76747 -3.36178 -2.07021
C 3.05804 -1.87752 -2.58500
C 2.00987 -2.84220 -2.61725
C .73600 -2.51186 -3.03637
C 2.81964 -.53357 -2.98127
C 1.47078 -.13524 -3.39466
C .46289 -1.12855 -3.47432
C -.92253 -.72287 -3.64938
C -1.92942 -1.68614 -3.45786
C 2.09141 2.25428 -2.88556
C 1.10447 1.29685 -3.35270
C -.26315 1.68988 -3.39691
C 1.68208 3.50070 -2.40273
C 3.36486 1.80205 -2.42597
C 3.72358 .41293 -2.49735
C 4.71276 -1.27364 .59227
C 4.62385 -1.17650 -.82068
C 3.92981 -2.20415 -1.52595
C 4.60267 .12242 -1.39888
C -3.56775 .01435 -2.91854
C -3.68009 -2.23783 -2.01236
C -3.23800 -1.31912 -3.02238
C -.66840 3.00651 -2.89807
C -1.28656 .67352 -3.59925
C -2.62881 1.00245 -3.32152
C .31384 3.87797 -2.42560
C -4.27141 .48794 -1.75798
C -4.48090 -.33350 -.65006
C -4.19714 -1.76811 -.79126
C -3.92400 -2.56824 .40089
C -3.14357 -3.74126 .30206
C -3.92621 -1.92012 1.65322
C -4.20294 1.74020 .82188
C -4.47955 .30418 .68208
C -4.26081 -.51620 1.78884
C -3.68295 2.21308 2.04075
C -3.23107 1.29679 3.04852
C -3.55382 -.03840 2.94580
C -3.94363 1.89352 -1.62422
C -3.16475 3.71856 -.27682
C -3.93912 2.54158 -.37179
C -2.02589 3.22157 -2.40362
C -2.97266 2.20799 -2.60257
C -2.25471 4.08893 -1.31220
C -1.28044 4.68495 .73463
C -2.57570 4.12824 .98487
C -2.77577 3.34226 2.09405
C -.16521 4.33385 1.51918
C -.36008 3.38573 2.61072
C -1.65131 2.97848 2.91004
C 1.26518 4.72541 -.46033
C .08451 4.74595 -1.28475
C -1.15350 4.79658 -.70050
C 2.24498 3.81350 1.55226
C 1.15299 4.47109 .92132
C 3.98776 2.36098 -1.30547
C 3.37330 3.38970 .83497
C 3.36987 3.44075 -.59658
C 2.29567 4.08086 -1.22314
C 4.60955 -.10105 1.38516
C 3.92490 2.22160 1.51578
C 4.62093 1.19788 .80691
C 4.70298 1.29574 -.60639
C .73733 2.51221 3.04285
C .47357 1.12735 3.48171
C 2.00742 2.84966 2.61699
C 3.06035 1.89046 2.57933
C 2.83084 .54512 2.97644
C 3.73722 -.39651 2.48768
