98 

C 3.89624 -2.52672 .63765
C 4.27748 -1.18967 .74889
C 4.54917 -.43567 -.47109
C 3.63132 -3.13147 -.63622
C 3.75723 -2.37389 -1.78060
C 4.31729 -1.06332 -1.70822
C 2.52331 -4.03663 -.50202
C 2.67333 -2.35767 -2.73365
C 1.51122 -3.08161 -2.53572
C 1.45521 -4.02233 -1.41214
C -.99930 -4.16149 -1.71626
C .15786 -4.50658 -.95118
C -.03234 -4.79811 .40658
C 4.50951 1.03142 -.43220
C 4.28948 1.66295 .79376
C 3.75652 -.32236 -2.83239
C 3.71421 1.05342 -2.80778
C 4.15185 1.76168 -1.60256
C 2.65664 -1.05135 -3.36180
C 1.45220 -.40902 -3.71594
C .27319 -2.54302 -3.12044
C -.90664 -3.18799 -2.79638
C 2.53339 3.00021 -2.67747
C 3.41294 2.95696 -1.51565
C 2.97801 3.46891 -.25621
C 3.53606 2.87547 .87986
C 1.35502 3.65906 -2.60533
C .21146 -1.16023 -3.61649
C 1.42997 1.02623 -3.74908
C 2.60627 1.72832 -3.37145
C .17754 3.10061 -3.23888
C -1.03142 -.46529 -3.65296
C .15739 1.72686 -3.68512
C .95115 4.33227 -1.37627
C 1.67054 4.10821 -.14114
C 1.55284 3.40992 2.25196
C 2.84330 2.89371 2.13740
C 3.27241 1.72009 2.87566
C 2.41507 1.12691 3.78123
C -.51146 4.27177 1.05532
C .94454 4.05938 1.07959
C -1.28198 3.84467 2.15773
C -.69859 3.04395 3.21605
C .69931 2.84674 3.30085
C 1.12185 1.71763 4.01930
C -.42646 4.40922 -1.41100
C -2.55018 4.05095 -.32259
C -1.19581 4.42301 -.20365
C -2.16268 2.99907 -2.56333
C -.90762 3.66233 -2.58790
C -3.05266 3.37011 -1.52631
C -2.16663 -2.53545 -2.90506
C -2.24968 -1.18882 -3.32518
C -1.05841 1.00780 -3.63377
C -3.40430 -.49211 -2.93392
C -3.41272 .94590 -2.86710
C -2.26401 1.70169 -3.17267
C 3.92140 -.49084 1.98702
C 2.99607 -1.10844 2.92409
C 4.05796 .90273 2.01138
C 2.28136 -.29064 3.80320
C 1.08862 -2.75555 3.07895
C 2.44215 -2.42838 2.65123
C 3.01249 -3.15990 1.60667
C .44046 -3.82879 2.46892
C 1.01471 -4.51768 1.36018
C 2.27212 -4.17027 .91816
C -1.61109 2.03675 3.57547
C -1.15427 .74856 3.95927
C .20171 .64834 4.29224
C .89866 -.58828 4.15031
C -1.18640 -1.67704 3.46532
C .25467 -1.73079 3.71072
C -3.12246 -.22613 2.76190
C -1.87492 -.42421 3.52101
C -3.67787 -1.31473 2.11974
C -3.04247 -2.59826 2.12171
C -1.79921 -2.79183 2.76678
C -.99756 -3.84346 2.29410
C -4.14241 2.48133 .33149
C -3.26721 3.53329 .78444
C -2.62764 3.41286 2.00767
C -4.26020 1.27595 1.03097
C -3.52078 1.12040 2.29386
C -2.80734 2.20746 2.77603
C -4.71000 .12973 -1.12177
C -4.30213 1.32257 -1.82948
C -4.08566 2.49756 -1.12200
C -4.43225 -1.19632 .87797
C -4.65254 .08194 .27664
C -3.02450 -3.06291 -1.90821
C -4.19632 -2.34626 .11880
C -4.00588 -2.24357 -1.30496
C -4.25568 -.99337 -1.90357
C -1.28650 -4.48127 1.04801
C -3.35649 -3.24681 .90680
C -2.41835 -4.11369 .29356
C -2.26685 -4.04466 -1.13722
