98 

C 3.31738 .32821 -3.11815
C 3.17916 1.66701 -2.74118
C 4.00266 2.11148 -1.67229
C 3.59930 3.23130 -.85647
C 2.48840 3.95071 -1.19438
C 2.19816 -.40488 -3.68496
C .92573 .18658 -3.83307
C .77169 1.60335 -3.53138
C 1.91138 2.34652 -3.00703
C 1.66376 3.53736 -2.32241
C -1.64786 1.27803 -3.61017
C -.54311 2.12623 -3.34688
C 1.20767 -2.58517 -3.11397
C 2.34087 -1.75976 -3.36001
C -1.09074 -3.79911 -1.98178
C -1.28293 -2.72311 -2.83752
C -.09342 -2.06126 -3.39658
C -.20357 -.68956 -3.83647
C -1.48390 -.08965 -3.84775
C 2.84598 2.39530 2.65180
C 2.90109 3.23692 1.52877
C 3.85338 2.90522 .52948
C .33667 4.65766 -.78187
C 1.61140 4.46427 -.16160
C 1.71025 3.99921 1.16457
C -.80539 4.63503 -.01628
C -.71772 4.25808 1.36270
C .47866 3.82094 1.92828
C -.78651 3.28511 -2.51372
C .33184 3.99292 -2.06362
C -2.02348 4.09911 -.55422
C -2.04116 3.39597 -1.76007
C 4.52866 1.65752 .55052
C 3.62481 1.21270 2.73284
C 4.37859 .75444 1.62000
C 2.89616 .28063 3.56366
C 3.02547 -1.06210 3.35490
C 1.59712 .83455 3.85347
C -2.01361 -.12338 3.49473
C -3.21894 .49915 3.14777
C -.82228 .70622 3.64237
C .43270 .04967 3.86615
C .56777 -1.38922 3.63616
C 1.85490 -1.90932 3.43348
C .39960 2.77415 2.95891
C 1.58321 2.15799 3.34290
C -1.98909 3.67443 1.72445
C -2.06717 2.63067 2.67624
C -.84359 2.08209 3.23106
C -3.22684 1.85264 2.65592
C 3.89163 -1.55786 2.30206
C 4.46741 -.68666 1.35627
C 4.62479 -1.16343 -.01397
C 3.37234 -2.83586 1.92782
C 3.57185 -3.30552 .65068
C 4.23101 -2.48096 -.31511
C .17926 -4.54802 -.20406
C 2.51154 -4.04956 -.00753
C 1.26974 -4.28130 .63538
C 2.07680 -3.02327 2.57699
C -.33567 -3.29918 2.32784
C 1.01286 -3.67017 1.94678
C -2.72031 -3.28669 1.71288
C -1.44079 -3.80791 1.52566
C -1.17712 -4.38112 .25408
C -1.87905 -1.54837 3.24399
C -.55472 -2.15377 3.16202
C -2.95690 -2.22199 2.65396
C 4.64746 -.20038 -1.11579
C 4.64156 1.17671 -.82197
C 3.66796 -2.83488 -1.60548
C 3.57231 -1.89443 -2.59387
C 4.11891 -.57725 -2.37696
C 2.56588 -3.75614 -1.39340
C 1.37362 -3.66730 -2.16001
C .22086 -4.22054 -1.58513
C -4.56204 -2.09107 .96165
C -3.64232 -3.14714 .62322
C -3.17914 -3.31421 -.69876
C -1.97414 -4.02994 -.85484
C -5.02242 -1.24564 -.03016
C -4.85034 .67752 1.48643
C -4.28867 -.19841 2.49681
C -4.15469 -1.54983 2.24474
C -5.17722 .17501 .24039
C -2.81156 3.64411 .57458
C -3.83512 2.68537 .42763
C -4.16891 1.94364 1.58092
C -3.60200 .21269 -2.96318
C -2.94414 1.48308 -2.98607
C -3.11665 2.41832 -1.96622
C -4.51377 -.07728 -1.97021
C -4.78572 .90229 -.95251
C -4.05905 2.10620 -.88978
C -3.54528 -2.34494 -1.71945
C -2.57677 -2.02636 -2.77027
C -2.66853 -.78468 -3.39105
C -4.52490 -1.39047 -1.38525
