98 

C 3.46581 -3.10548 -.15052
C 2.80786 -3.37454 1.05789
C 3.25111 -2.65674 2.20596
C 2.34313 -2.40203 3.29568
C 1.13981 -3.04201 3.33726
C 2.80142 -3.29369 -1.40208
C 1.43557 -3.63456 -1.48341
C .71693 -3.94144 -.25329
C 1.43779 -3.87887 1.00250
C .70213 -3.84716 2.20106
C -1.45171 -3.63074 -1.47956
C -.73021 -3.93978 -.25142
C -1.44685 -3.87528 1.00654
C -.70739 -3.84520 2.20294
C -2.81611 -3.28580 -1.39437
C .71509 -3.24404 -2.68401
C 1.38081 -2.45385 -3.64696
C -.73381 -3.24201 -2.68214
C -2.34149 -2.39566 3.30233
C .00163 -2.35930 3.88143
C -1.13974 -3.03872 3.34046
C -3.25304 -2.64790 2.21516
C -3.47588 -3.09598 -.14092
C -2.81517 -3.36701 1.06569
C -2.41603 -1.00311 3.65742
C -1.24953 -.24066 3.89223
C .00348 -.95401 4.04614
C 1.25779 -.24409 3.88851
C 2.42162 -1.00960 3.65049
C .00586 1.87143 3.42216
C 1.26643 1.16152 3.55127
C 2.48343 1.73349 2.99461
C 2.42299 3.00335 2.38236
C -2.47309 1.74018 3.00140
C -1.25595 1.16495 3.55500
C -2.41153 3.01001 2.38914
C -1.19072 3.70823 2.26649
C .00649 3.17960 2.79757
C 1.20359 3.70491 2.26318
C -3.53584 -.46906 2.96081
C -4.40000 1.24418 1.49714
C -3.58980 .89140 2.62165
C -4.39526 -1.99930 -.26565
C -4.63175 -1.13543 .83199
C -4.06556 -1.48970 2.08481
C -4.82591 .23996 .56052
C 3.59716 .88179 2.61183
C 3.54091 -.47854 2.95096
C 3.21896 3.32625 1.22310
C 4.13514 2.41065 .74072
C 4.40516 1.23238 1.48524
C 2.40642 4.06192 .30652
C 2.35394 3.69433 -1.06846
C 1.15691 3.97986 -1.75485
C -1.20272 4.42292 1.01263
C .00487 4.66735 .31924
C 1.21380 4.41961 1.00946
C .00269 4.50659 -1.09204
C 4.82635 .22721 .54726
C 4.62960 -1.14779 .81907
C 4.06599 -1.50053 2.07348
C 4.38776 -2.01138 -.27797
C 4.63690 .74265 -.77524
C 4.24391 -.09366 -1.84068
C 4.28079 -1.49489 -1.60566
C 2.68177 -1.90362 -3.38898
C 3.41112 -2.37995 -2.32871
C 3.18994 2.59437 -1.55308
C 4.15407 2.08163 -.67104
C .71070 3.14935 -2.82414
C 1.45659 2.03119 -3.27026
C 2.73465 1.75137 -2.65548
C 3.31990 .44247 -2.83037
C 2.65594 -.48195 -3.66592
C -.74080 1.01664 -3.98406
C .72895 1.01426 -3.98551
C 1.39488 -.18906 -4.25352
C -1.41068 -.18483 -4.25016
C -2.39807 4.06878 .31294
C -2.35061 3.70147 -1.06234
C -1.15478 3.98367 -1.75196
C -2.74095 1.75977 -2.64891
C -1.46392 2.03589 -3.26725
C -.71381 3.15165 -2.82249
C -4.15326 2.09315 -.66000
C -4.12922 2.42187 .75176
C -3.20975 3.33527 1.23198
C -2.67071 -.47406 -3.65888
C -3.32981 .45220 -2.82176
C -3.19069 2.60378 -1.54502
C -2.69905 -1.89567 -3.38161
C -3.42618 -2.37017 -2.31906
C -4.29113 -1.48290 -1.59365
C -4.25176 -.08183 -1.82921
C -4.63932 .75521 -.76260
C .67114 -1.43997 -4.37676
C -.69048 -1.43789 -4.37505
C -1.40032 -2.44982 -3.64312
