98 

C -2.57812 -2.07059 2.70087
C -3.80829 -1.98469 2.05783
C -4.61171 -.79968 2.10688
C -2.08390 -.90983 3.42078
C -2.84422 .25413 3.40986
C -4.11913 .32222 2.76434
C 1.49601 -1.92070 3.52415
C .09873 -1.95690 3.61108
C -.65940 -.78253 3.69093
C 2.19008 -.69599 3.42062
C 1.43426 .52871 3.45815
C .00928 .48380 3.60647
C -.79369 1.66165 3.26799
C -2.18280 1.53501 3.25501
C 3.40309 1.72706 2.58297
C 2.06199 1.76961 2.99147
C 4.09309 .46856 2.39430
C 3.50964 -.73447 2.79182
C 3.93264 -1.90803 2.10869
C -5.38203 .59433 .24552
C -4.84571 1.75758 .92438
C -5.28498 -.66158 .83165
C -4.23747 1.62916 2.15659
C -2.33704 3.86544 -.84586
C -4.22766 2.61990 -.07096
C -3.10059 3.43113 .24155
C -3.00948 2.36136 2.44314
C -1.02302 3.54383 1.67437
C -2.43180 3.25553 1.53721
C 1.01768 4.40027 .60851
C -.36914 4.28093 .60309
C -.99671 4.35340 -.66749
C 1.81336 3.81196 1.65773
C -.21235 2.77564 2.57542
C 1.24019 2.86965 2.52214
C -4.72445 -1.65578 -1.35947
C -4.74001 -.32612 -1.93856
C -4.92160 -1.81444 .01975
C -5.07701 .75617 -1.16709
C -4.33970 1.99754 -1.33668
C -3.27728 2.10660 -2.28402
C -2.37981 3.15850 -2.08724
C -1.67605 -3.68906 -1.91512
C -2.89739 -3.30095 -1.28827
C -3.69738 -2.38331 -1.99964
C -3.05929 -1.49439 -2.98448
C -1.69152 -1.66492 -3.35656
C -1.12872 -2.90219 -3.02211
C 1.12192 -2.01000 -3.36650
C .26223 -3.07478 -3.02269
C 2.47103 -2.19249 -2.98024
C -2.80987 .93981 -2.99676
C -3.62389 -.23670 -2.88065
C 1.47349 .47945 -3.38461
C -1.06184 3.11420 -2.62257
C -.53021 1.93893 -3.16639
C -1.42145 .81181 -3.35520
C -.84242 -.50862 -3.55142
C .58074 -.68031 -3.56217
C -2.97166 -3.34676 .14233
C -4.00888 -2.62024 .76348
C -.61930 -4.21722 -1.19103
C -.60532 -4.16053 .24743
C -1.77114 -3.66911 .91393
C -1.62760 -3.07350 2.22600
C -.38342 -3.09763 2.83274
C 1.93139 -4.08376 .10738
C .69148 -4.15290 .89456
C .74160 -3.72389 2.22948
C 3.10045 -3.62428 .72796
C 3.07504 -3.08207 2.05754
C 1.91392 -3.10114 2.77741
C .59340 -3.95770 -1.94427
C 2.84395 -3.16169 -2.02586
C 1.84338 -3.91710 -1.34405
C 4.32746 -1.35469 -1.88717
C 4.00813 -2.66249 -1.33503
C 4.13417 -2.88744 .01051
C 4.66204 .99649 -1.53472
C 4.87417 -.31475 -1.08254
C 1.75904 2.81676 -2.54889
C .92426 1.76327 -3.14821
C 3.10122 2.55777 -2.28185
C 3.66146 1.26975 -2.53132
C 2.88464 .24749 -3.08776
C 3.36490 -1.06921 -2.87236
C 3.11269 3.95538 -.27413
C 1.77337 4.36249 -.60712
C 1.13946 3.88013 -1.77348
C -.25543 3.99981 -1.81346
C 3.80244 3.13737 -1.14737
C 4.81300 1.91550 .72618
C 3.94200 2.64803 1.62651
C 3.14269 3.66734 1.14835
C 4.71891 2.13584 -.63823
C 4.61697 -1.81157 .87519
C 5.01303 -.55028 .35431
C 4.90509 .55668 1.22449
