98 

C 2.58159 -2.67858 2.56327
C 1.39275 -3.36034 2.31468
C 1.33172 -4.25193 1.15916
C 3.69181 -2.71090 1.64208
C 3.57518 -3.42900 .47916
C 2.42291 -4.25984 .26859
C 4.31841 -1.40560 1.64013
C .03494 -4.66292 .64862
C -1.11854 -4.33722 1.40286
C 2.19490 -4.28130 -1.15617
C .93509 -4.49513 -1.64381
C -.13480 -4.84388 -.74728
C 3.03563 -3.27080 -1.77195
C 2.49000 -2.38362 -2.73420
C 3.13832 -1.15258 -2.88371
C 4.42667 -1.46264 -.81253
C 3.93251 -2.78957 -.77944
C 3.93804 2.78162 -.77969
C 4.42916 1.45394 -.81256
C 4.14762 .71703 -1.98173
C 4.14617 -.72434 -1.98142
C 4.64206 -.73666 .44300
C 4.32146 1.39538 1.64025
C 4.64328 .72650 .44291
C -1.34786 -4.42810 -1.37429
C -2.50568 -4.13477 -.62149
C -2.39829 -4.17281 .79564
C -3.43898 -3.22117 -1.19386
C -1.00193 -3.62301 -2.52713
C -1.77119 -2.48199 -2.87785
C -3.06260 -2.42853 -2.33546
C -3.18336 .00437 -2.75540
C -3.77078 -1.19019 -2.27032
C -3.76859 1.20005 -2.27060
C 1.08521 -2.46960 -3.10220
C .39364 -3.62103 -2.67138
C -1.09652 1.26456 -3.30139
C 2.42892 -.00174 -3.36101
C 1.03937 -.00001 -3.53423
C .32984 -1.26707 -3.42663
C -1.09874 -1.25971 -3.30115
C -1.82061 .00312 -3.23874
C -4.30651 -2.44022 -.38970
C -4.11821 -2.39458 1.02158
C -3.14661 -3.24247 1.59092
C -4.36950 -1.14826 1.69237
C -4.58194 -1.20210 -1.11492
C -4.57951 1.21337 -1.11494
C -4.88731 .00599 -.43982
C -4.83762 .00604 .99468
C -3.49761 -.70207 2.73213
C -2.33685 -1.42834 3.09580
C -2.27164 -2.75709 2.63147
C -1.03436 -3.42286 2.51024
C .13859 -1.44931 3.38716
C .17494 -2.80403 2.87676
C -3.49575 .71133 2.73236
C -2.26574 2.76362 2.63292
C -2.33371 1.43513 3.09700
C -1.10630 .72737 3.43351
C -1.10792 -.72353 3.43273
C .14238 1.44995 3.38882
C 1.37997 -.72576 3.51066
C 2.58058 -1.39897 3.20771
C -4.30103 2.45091 -.38978
C -4.11217 2.40491 1.02159
C -4.36593 1.15918 1.69212
C -3.13906 3.25053 1.59168
C -1.02644 3.42589 2.51171
C .18165 2.80440 2.87852
C 1.38195 .72269 3.51132
C 2.58429 1.39260 3.20837
C 3.74206 .68262 2.74053
C 3.74035 -.69186 2.74041
C -1.10827 4.34013 1.40407
C -.12432 4.84519 -.74615
C .04563 4.66319 .64997
C 1.34122 4.24894 1.16034
C 1.40069 3.35756 2.31621
C 2.58775 2.67252 2.56396
C -3.43226 3.23067 -1.19408
C -1.33850 4.43331 -1.37338
C -2.49650 4.14188 -.62063
C -2.38830 4.17896 .79652
C 1.08964 2.46944 -3.10253
C .33211 1.26861 -3.42683
C .40051 3.62242 -2.67142
C -.99511 3.62793 -2.52694
C -1.76662 2.48845 -2.87818
C -3.05813 2.43746 -2.33612
C 2.20328 4.27727 -1.15584
C 3.04178 3.26555 -1.77230
C 2.49411 2.38015 -2.73483
C 3.14021 1.14771 -2.88409
C .94408 4.49473 -1.64313
C 3.69727 2.70224 1.64199
C 2.43169 4.25437 .26905
C 3.58164 3.42107 .47924
