98 

C 4.50300 -1.62694 -.25739
C 4.15055 -2.22386 .96205
C 4.00140 -.17892 -2.66674
C 3.73333 -1.51134 -2.62964
C 4.05165 -2.28021 -1.44722
C 3.03654 .73772 -3.26256
C 2.48992 -2.01750 -3.18600
C 1.47984 -1.13016 -3.69467
C 1.76757 .28555 -3.72918
C 2.05286 2.85053 -2.45480
C 3.17060 1.97581 -2.63426
C -.33948 4.09874 -1.58908
C -.42495 3.17958 -2.62779
C .80633 2.50840 -3.06294
C .69882 1.23536 -3.75259
C -.58146 .74261 -4.05847
C 3.12806 -3.34194 -1.39746
C 2.71612 -3.88907 -.15679
C 3.25894 -3.33771 1.01984
C 1.40788 -4.45030 -.07836
C 2.14690 -3.15842 -2.47939
C -.85976 -.64289 -4.02451
C .12763 -1.58294 -3.68405
C -.27559 -2.76427 -2.93262
C .77100 -3.55369 -2.31632
C .47621 -4.34654 -1.20333
C .66032 -4.38359 1.10426
C 1.10157 -3.59499 2.21430
C 2.43359 -3.18716 2.19176
C 2.85799 -1.99824 2.87843
C 1.92517 -1.19817 3.56738
C 2.27315 .14993 3.74752
C -.46428 -.56821 3.88791
C -1.80637 -.89006 3.75094
C -1.29384 -3.04306 2.70453
C .11018 -2.80968 2.96472
C .51896 -1.58969 3.59948
C -2.22622 -2.12702 3.20678
C -.73811 -4.42915 .74799
C -2.95398 -3.55228 .90999
C -1.71382 -3.85003 1.55025
C -2.23618 -.82724 -3.66752
C -2.63071 -1.86315 -2.82898
C -1.63062 -2.87588 -2.45942
C -1.89977 -3.71231 -1.30994
C -.83668 -4.38615 -.67997
C -3.03400 -3.46013 -.49376
C 3.92824 -1.42081 2.15063
C 3.39889 .71883 3.09331
C 4.15006 -.03212 2.15468
C 3.10755 2.11597 2.87281
C 3.61344 2.74318 1.76758
C .58537 4.47168 .49688
C 2.77988 3.69261 1.05191
C 1.45275 3.98183 1.47709
C 1.74036 2.37172 3.29928
C -.53949 3.01989 2.70600
C .88381 3.24570 2.61334
C -2.74809 3.31625 1.61371
C -1.41784 3.72440 1.76388
C -.84532 4.38886 .65323
C -.10413 .85751 3.85832
C 1.24847 1.17412 3.86581
C -2.80934 .11935 3.44677
C -2.43486 1.45702 3.21008
C -1.03556 1.85056 3.37763
C -3.27927 2.20855 2.37443
C 4.40232 1.99889 .80294
C 4.61639 .61249 .92582
C 4.75781 -.17855 -.29062
C 4.15422 2.60472 -.46788
C 4.21655 1.84546 -1.60946
C 4.61606 .47799 -1.52785
C 3.10004 3.59909 -.32175
C 2.08880 3.74790 -1.31125
C .88700 4.32726 -.88826
C -4.40843 2.31390 .35567
C -3.40498 3.35021 .34895
C -2.66798 3.64476 -.81999
C -1.41838 4.26047 -.63240
C -4.68777 1.63656 -.80298
C -3.85652 -.49578 2.71929
C -4.53592 .20221 1.68707
C -4.30983 1.59368 1.61410
C -4.52040 -1.89077 .36283
C -3.88200 -2.59162 1.46586
C -3.53306 -1.90860 2.59940
C -4.92846 .20003 -.75798
C -4.86860 -.51778 .45533
C -2.83469 .49194 -3.60571
C -3.90171 .72852 -2.77384
C -4.42573 -.35948 -1.96877
C -3.81405 -1.63265 -1.98450
C -3.99264 -2.42518 -.83241
C -2.87649 2.85165 -2.02257
C -1.74598 2.59788 -2.90978
C -1.78918 1.45976 -3.71520
C -3.95085 1.93996 -2.01587
