98 

C 2.79033 .29499 -3.43508
C 2.64960 1.63915 -3.10142
C 3.61408 2.17217 -2.19861
C -.12131 3.93313 -2.15414
C 1.15175 3.49159 -2.55630
C 1.32436 2.24899 -3.19567
C -1.27756 3.18823 -2.43552
C -1.14389 1.93566 -3.13991
C .15693 1.44511 -3.47864
C .33405 .00848 -3.74121
C 1.63338 -.50423 -3.78291
C -3.50041 1.44210 -2.59368
C -2.29104 1.02446 -3.17901
C -3.53451 2.57835 -1.69888
C -2.44464 3.43631 -1.59297
C -2.28101 4.10621 -.34743
C 4.41706 1.31102 -1.41859
C 3.74966 -.54010 -2.79377
C 4.44518 -.08046 -1.64938
C 3.25532 -1.89008 -2.87380
C 3.54591 -2.77715 -1.86972
C .22599 -4.33644 -1.30817
C 2.53662 -3.73160 -1.45802
C 1.25584 -3.75830 -2.06546
C 1.92135 -1.85254 -3.44941
C -.46042 -2.28747 -3.19500
C .90669 -2.72547 -3.04606
C -2.80169 -2.58466 -2.49705
C -1.50570 -3.08969 -2.57144
C -1.15660 -4.06092 -1.59788
C -3.11641 -1.27567 -3.00700
C -.74562 -.92300 -3.55333
C -2.09095 -.39315 -3.38585
C 4.26783 -2.33163 -.69342
C 4.63825 -.98539 -.51606
C 4.66849 -.44583 .84024
C 3.79073 -3.12694 .39770
C 3.76192 -2.60035 1.66582
C 4.28400 -1.28942 1.89975
C 2.68113 -3.94361 -.06175
C 1.54290 -4.15874 .75662
C .35641 -4.50470 .09507
C 4.55297 1.00221 1.05095
C 4.49470 1.85572 -.06703
C 3.57455 -.77655 3.05379
C 3.41437 .56859 3.22047
C 3.95506 1.48481 2.24475
C 2.47045 -1.67466 3.35090
C 2.14647 1.09142 3.68389
C 1.03678 .24741 3.93012
C 1.20428 -1.18931 3.74686
C 1.43817 -3.49165 2.04630
C 2.58375 -2.79780 2.51216
C -.92949 -4.28129 .69224
C -1.07171 -3.57244 1.87834
C .14951 -3.12686 2.56989
C .06587 -2.00539 3.46667
C -1.20913 -1.43535 3.72526
C 3.10521 2.62048 2.22921
C 2.95318 3.40876 1.07780
C 3.76567 3.07247 -.03692
C 3.29279 3.31873 -1.38001
C 2.11842 3.98364 -1.57708
C .57644 3.87649 1.78725
C 1.68599 4.10161 .86349
C 1.38355 4.51463 -.44809
C -.71092 4.22642 1.37615
C -.98810 4.63097 .02962
C .03155 4.65829 -.88908
C 1.97056 2.35797 3.10962
C -1.36732 -.05778 3.92160
C -.26012 .82934 3.84887
C -.46212 2.13894 3.27876
C .68609 2.88206 2.84033
C -1.78504 2.48724 2.76150
C -1.87412 3.54457 1.86713
C -3.36591 -.88205 3.10304
C -2.68476 .32290 3.46763
C -2.89584 1.52368 2.79478
C -4.34590 -.85175 2.13583
C -4.68988 .40006 1.51771
C -3.95171 1.56912 1.78275
C -3.40026 -2.88928 1.08962
C -2.36674 -2.92024 2.12703
C -2.41903 -1.95602 3.13126
C -4.40253 -1.90231 1.15526
C -4.60744 -1.78645 -1.28374
C -3.65228 -2.85916 -1.37611
C -3.09969 -3.44812 -.21860
C -1.88188 -4.13672 -.38911
C -5.00079 -1.33375 -.03841
C -4.97932 .98808 -.84211
C -4.48508 .51772 -2.12468
C -4.29900 -.83503 -2.33721
C -5.18524 .09213 .18840
C -2.87503 3.55894 .81233
C -3.87346 2.56797 .72862
C -4.34385 2.25213 -.56799
