98 

C 3.11936 -2.56795 -2.18378
C 3.68601 -1.29910 -2.35806
C 4.59266 -.86878 -1.35290
C 4.89535 .53355 -1.16783
C 4.29325 1.46919 -1.98382
C 1.83793 -2.90215 -2.75813
C 1.07600 -1.96806 -3.44033
C 1.61555 -.60958 -3.61539
C 2.93984 -.30548 -3.12011
C 3.29533 1.04325 -2.95116
C -.65679 .14814 -4.15627
C .70757 .46196 -3.87191
C -2.34825 -3.13440 -2.42120
C -.97705 -3.22635 -2.68813
C -.35934 -2.22021 -3.53268
C -1.16534 -1.19967 -4.04253
C 4.54553 1.98417 .78220
C 4.02925 3.01600 -.09983
C 4.98984 .77856 .25921
C 3.86556 2.74656 -1.44338
C .71801 4.48085 .74119
C 2.97331 3.70609 .60555
C 1.82915 4.19317 -.06696
C 1.00341 1.80366 -3.43524
C 2.31356 2.07364 -3.04651
C 2.61850 3.10627 -2.09906
C .22853 3.65317 -1.95298
C 1.59588 3.80072 -1.45626
C -.05335 2.69173 -2.97404
C 3.88206 -.46673 2.08651
C 3.36422 .79146 2.59974
C 4.68656 -.43831 .93796
C 3.74850 1.97729 1.96484
C 2.83905 3.10334 1.89027
C .62482 3.97233 2.05912
C 1.60600 3.09770 2.56169
C 1.19719 1.91720 3.31319
C 2.12049 .80686 3.37727
C 1.64164 -.41902 3.82697
C 2.21929 -1.68250 3.39716
C 3.21268 -1.72751 2.42374
C 3.21326 -2.84482 1.47763
C 1.18069 -2.66919 3.47114
C 1.16452 -3.71523 2.56570
C 2.21321 -3.82255 1.59134
C -.04240 -2.02234 3.82778
C -.07725 -4.10072 1.96118
C -1.27639 -3.45875 2.27120
C -1.26232 -2.39037 3.26005
C -2.97412 .95547 3.28044
C -2.05760 -.02696 3.65483
C -2.33868 -1.40648 3.28281
C -3.47904 -1.68176 2.52132
C -.76285 3.78701 2.36718
C -1.18358 2.69499 3.12709
C -.20116 1.71029 3.58758
C -.67408 .38741 3.92159
C .26586 -.62529 4.09155
C -2.54529 2.30054 2.97171
C 3.83002 -2.65502 .16369
C 4.56641 -1.48169 -.07371
C 1.62684 -4.45308 .41662
C 2.12642 -4.16764 -.83795
C 3.27006 -3.29078 -.96822
C .21376 -4.54770 .60570
C 1.22762 -3.91253 -1.91579
C -.15917 -3.97551 -1.74855
C -.68661 -4.31551 -.44046
C -3.46999 -2.71793 1.50110
C -2.34495 -3.50890 1.27698
C -2.04536 -3.92298 -.08642
C -2.88194 -3.48999 -1.11637
C -4.73874 -.91734 .70227
C -4.30318 -2.26646 .42366
C -4.00532 -2.63611 -.86587
C -4.70964 .08210 -.28564
C -4.35910 -.30724 -1.66120
C -4.10042 -1.66196 -1.93037
C -4.25605 1.72819 1.50272
C -4.10054 .66275 2.44866
C -4.34400 -.63783 2.06011
C -4.00232 2.42393 -.80779
C -4.50581 1.46102 .14811
C -1.52858 4.24918 1.24146
C -3.15222 3.52305 -.39558
C -2.79595 3.69542 .96232
C -3.34102 2.78663 1.91378
C -1.69092 1.04126 -3.87113
C -1.42766 2.29990 -3.23681
C -2.46285 2.83341 -2.47270
C -2.19282 3.75030 -1.41815
C -.86933 4.16335 -1.13391
C -.61301 4.56830 .19466
C -3.14850 -2.06547 -2.93760
C -2.55615 -1.11033 -3.74334
C -3.76754 .68300 -2.55352
C -2.88727 .27215 -3.55987
C -3.61384 2.03556 -2.08986
