98 

C 3.36713 -.16493 -3.04180
C 3.06110 -1.52011 -2.87722
C 3.78808 -2.21122 -1.87569
C 3.24314 -3.40196 -1.25355
C 2.07267 -3.92777 -1.72080
C 2.42169 .73969 -3.64486
C 1.10156 .35936 -3.90980
C .71884 -1.04436 -3.68734
C 1.72783 -1.97873 -3.26050
C 1.32005 -3.23299 -2.75397
C -1.69510 -.34386 -3.67818
C -.67549 -1.38584 -3.54346
C -1.04595 -2.63210 -2.92029
C -.03345 -3.53289 -2.55701
C -2.98968 -.62410 -3.23007
C .08942 1.40613 -3.95087
C .46892 2.72839 -3.64316
C -1.31635 1.05198 -3.84700
C .15245 -4.37295 1.39520
C 1.30905 -4.35026 .60306
C 1.13452 -4.51976 -.79757
C -.15197 -4.38132 -1.37101
C -1.30866 -4.35378 -.57903
C -1.13422 -4.51457 .82271
C -3.24182 -3.39232 1.27234
C -2.07151 -3.91581 1.74231
C -3.30695 -1.83177 -2.50905
C -2.34462 -2.80638 -2.27401
C -2.47280 -3.63319 -1.07739
C -3.48889 -3.32566 -.15604
C 2.47388 -3.62769 1.09749
C 3.49023 -3.32660 .17445
C 4.37107 -2.21859 .37193
C 2.34697 -2.79437 2.28978
C 3.31016 -1.81924 2.51890
C 4.32224 -1.50936 1.54739
C -1.31823 -3.21511 2.77104
C .03491 -3.51731 2.57609
C 1.04817 -2.61549 2.93473
C -1.72514 -1.95771 3.27056
C -.71560 -1.02158 3.69215
C .67845 -1.36529 3.55037
C 1.69871 -.32315 3.67819
C 2.99316 -.60677 3.23157
C -2.41636 .76444 3.63630
C -1.09711 .38430 3.90492
C -3.36212 -.14329 3.03898
C -3.05766 -1.50007 2.88404
C -3.78514 -2.19701 1.88694
C 3.44577 1.73227 2.74650
C 4.53025 -.07418 1.54753
C 3.85862 .42330 2.70786
C 1.32082 1.07413 3.83772
C 2.23546 2.06976 3.43931
C -.08436 1.43060 3.93881
C 3.55661 2.54849 1.56969
C 4.00899 2.02273 .35874
C 4.55272 .66590 .34936
C 4.58176 -.08489 -.90519
C 4.51409 -1.49908 -.88361
C 4.12602 .54613 -2.07448
C 2.41250 3.61028 -.80393
C 3.48897 2.62704 -.87143
C 3.66492 1.92059 -2.06782
C 1.62831 3.82936 -1.93998
C 1.77028 3.01935 -3.11086
C 2.74664 2.05215 -3.15245
C .44842 3.63829 2.94072
C 1.77596 3.30355 2.85165
C 2.48918 3.53114 1.63167
C -.21799 4.21231 1.81269
C .42400 4.34138 .57923
C 1.83608 3.98369 .48338
C -.46251 2.75125 3.62143
C -1.82888 3.98229 -.51378
C -.41654 4.33834 -.61222
C .22557 4.20126 -1.84461
C -2.48318 3.52355 -1.65875
C -3.65813 1.93640 2.05134
C -2.74004 2.07405 3.13518
C -1.76321 3.04041 3.08703
C -3.48224 2.63523 .85034
C -2.40525 3.61739 .77601
C -1.62081 3.84290 1.91057
C -4.51061 -1.49010 .89056
C -4.54814 .66710 -.35698
C -4.57687 -.07593 .90240
C -4.12028 .56241 2.06714
C -3.55155 2.54188 -1.58978
C -4.00356 2.02349 -.37543
C -3.44146 1.71832 -2.76108
C -3.85493 .40967 -2.71378
C -4.52701 -.08042 -1.55027
C -4.31940 -1.51578 -1.54012
C -4.36871 -2.21805 -.36022
C -.44177 3.62079 -2.96824
C -1.76996 3.28799 -2.87694
C -2.23059 2.05077 -3.45589
