98 

C 3.00954 1.43464 3.06568
C 2.01396 2.41099 3.14609
C 2.15995 3.52615 2.28387
C 3.92052 1.39616 1.97719
C 3.83059 2.31880 .92662
C 3.04146 3.46932 1.17231
C .68558 2.00586 3.59942
C -.37348 2.89953 3.32572
C -1.68719 2.44343 3.17245
C 2.76362 .08546 3.50361
C 1.47720 -.36201 3.81563
C .37973 .62049 3.83880
C -.98623 .16559 3.73621
C -2.02018 1.09062 3.34631
C -1.26850 -1.27016 3.65812
C -2.53943 -1.67030 3.23767
C 3.70833 -.74330 2.79631
C 1.19583 -1.78653 3.65798
C -.18571 -2.24184 3.58224
C 3.42329 -2.08133 2.60888
C 2.20299 -2.62382 3.14725
C 3.49460 2.62721 -1.47111
C 4.02334 1.84012 -.44502
C 4.40418 -.50190 .43675
C 4.28683 .01872 1.74311
C -3.51821 -.73080 2.74700
C -3.26023 .63297 2.72089
C -3.92199 1.44553 1.70083
C -4.27215 -1.37947 1.70782
C -4.79679 -.63006 .68420
C -4.68824 .79628 .71972
C -3.24454 -2.30217 -2.22025
C -4.62843 -1.08255 -.68557
C -3.88798 -2.25088 -.96874
C -1.68737 -3.75363 2.32595
C -2.74411 -2.90129 2.51146
C -3.65846 -2.66293 1.43561
C -1.40639 -4.26053 1.00963
C -2.13102 -3.84238 -.10161
C -3.34498 -3.05496 .12152
C -.44572 -3.49428 2.99376
C -3.38312 2.76007 1.37215
C -2.35121 3.27600 2.16767
C -4.66338 1.23928 -.66285
C -4.02864 2.40077 -.99984
C -3.46451 3.23495 .03533
C -4.52256 .07450 -1.51429
C -3.66098 .09164 -2.63285
C -3.15541 -1.15817 -3.04374
C -2.37346 3.93119 -.53911
C -1.30468 4.39203 .24316
C -1.40001 4.18480 1.64606
C -.20700 4.05007 2.44726
C 1.01101 4.32271 1.89617
C .22212 3.99237 -1.72350
C .01138 4.51142 -.37533
C 1.12060 4.62880 .48086
C 1.52876 3.71549 -2.12093
C 2.63034 3.76504 -1.20719
C 2.42313 4.19752 .07919
C -2.14987 3.40133 -1.88331
C -.60064 2.22511 -3.35455
C -.86723 3.30087 -2.43011
C 1.16592 .70131 -4.24393
C .79683 1.95620 -3.70751
C 1.81729 2.68065 -3.08338
C -2.87767 1.29872 -2.92739
C -3.14763 2.44303 -2.15321
C -1.94007 -1.24776 -3.81178
C -1.18222 -.10622 -4.11048
C -1.59756 1.20508 -3.58081
C .17172 -.33871 -4.43470
C 2.18998 -1.33979 -3.95548
C 2.39752 .09536 -3.92813
C 3.27984 .69646 -2.98278
C 3.04151 2.04189 -2.69576
C 2.86272 -2.13450 -3.08005
C -1.30220 -2.48035 -3.47522
C .08524 -2.63417 -3.56039
C .78665 -1.59133 -4.22788
C .01682 -4.51653 .94484
C .75334 -4.33526 -.23968
C .03077 -3.97645 -1.45751
C -1.42247 -3.77956 -1.38803
C -2.04874 -3.09913 -2.42565
C 2.18577 -3.24595 -2.42744
C .76068 -3.43699 -2.55779
C 2.70066 -3.74890 1.16430
C 1.87741 -3.76345 2.31855
C .56463 -4.17286 2.21605
C 2.84064 -3.46118 -1.22645
C 2.15648 -4.02305 -.10772
C 3.94410 -.12563 -1.98340
C 4.25828 .41289 -.70143
C 3.80697 -1.55412 -2.12986
C 3.84861 -2.40430 -1.03907
C 4.15554 -1.91261 .26675
C 3.69220 -2.68448 1.35273
