98 

C -3.48538 3.28590 -.16591
C -3.83161 2.40945 -1.19314
C -4.70223 1.31562 -.84579
C -4.73677 .09911 -1.63613
C -3.94358 -.01059 -2.74212
C -2.30111 4.08263 -.24330
C -1.39115 3.94896 -1.29644
C -1.68043 2.96664 -2.33938
C -2.91498 2.25848 -2.30956
C -3.02735 1.06486 -3.09329
C .70298 2.98780 -2.97514
C -.57101 2.41198 -3.10495
C .98706 3.98455 -1.95398
C -.01605 4.38117 -1.05484
C .39965 4.67351 .27151
C -2.38637 -3.34684 -2.23523
C -3.43428 -2.41593 -2.20580
C -3.29074 -1.27486 -3.05305
C -.62651 1.07617 -3.60989
C -1.90346 .47436 -3.66791
C -2.05691 -.96715 -3.64767
C .55411 .23564 -3.63535
C -.91930 -1.79970 -3.49240
C -1.14723 -3.04921 -2.89476
C -4.23899 -2.28554 -.98218
C -4.88929 -1.03229 -.72726
C -2.07403 -4.17648 -1.08461
C -2.78324 -3.99485 .09206
C -3.89434 -3.06300 .13495
C -.66408 -4.36707 -1.03252
C -2.07061 -3.89802 1.32240
C -.68121 -4.02481 1.38985
C .03948 -4.34867 .18149
C 3.35148 -3.11099 -1.05263
C 2.06510 -3.63809 -1.09977
C 1.47413 -4.13384 .12245
C 2.14826 -3.90425 1.33149
C 1.86992 2.24750 -3.22248
C 1.82132 .83800 -3.43003
C .40946 -1.22097 -3.46714
C 2.96908 .04270 -3.01486
C 2.78813 -1.35667 -2.73256
C 1.48234 -1.97418 -2.91505
C 1.19629 -3.20500 -2.18951
C -.09456 -3.70554 -2.19450
C 3.73446 -2.00864 -1.91797
C -3.93046 -2.50093 1.45909
C -4.45053 -1.21047 1.68817
C -5.00474 -.51103 .56849
C -3.87188 -.44667 2.74083
C -2.77777 -2.96636 2.17350
C 1.39840 -3.34918 2.45069
C .01656 -3.30220 2.45008
C -.63260 -2.21239 3.14326
C -2.07533 -2.11024 3.03752
C -2.69388 -.88593 3.37927
C -3.83383 1.01116 2.68962
C -4.33053 1.71398 1.55412
C -4.91392 .95419 .48924
C -3.71173 2.93243 1.22157
C -2.64581 1.43421 3.31652
C -1.97659 2.61920 2.94018
C -2.62133 3.44322 1.99130
C -.51798 4.49221 1.36913
C -1.84485 4.29392 1.11708
C -.51033 .23029 3.69109
C -1.89539 .26572 3.70505
C 3.63120 .03829 2.73736
C 2.32429 .12857 3.22851
C 1.62481 1.40470 3.10742
C .22227 1.47393 3.40385
C -.52272 2.65679 3.06144
C 2.25631 2.46486 2.36885
C 1.49294 3.58535 2.01638
C .14786 3.70563 2.39295
C .13956 -1.06743 3.52752
C 2.17747 -2.31718 3.04578
C 1.57066 -1.10236 3.41293
C 5.06988 .45328 .93650
C 4.19603 1.07130 1.89454
C 3.47923 2.22793 1.60817
C 5.11939 .96673 -.35217
C 4.45190 2.19617 -.64676
C 3.66831 2.86310 .31273
C 3.48711 -2.37413 2.45688
C 5.04678 -.98208 1.16126
C 4.22137 -1.21469 2.33407
C 4.92078 .06302 -1.48381
C 4.78082 -1.29662 -1.25905
C 4.95060 -1.84940 .07783
C 4.09273 -3.01462 .16631
C 3.45170 -3.33192 1.36456
C 2.92320 2.84958 -2.43682
C 3.97513 2.09236 -2.01858
C 4.07690 .70767 -2.43456
C 1.67301 4.24364 .72277
C 2.66035 3.80358 -.16844
C 2.33381 3.82789 -1.55130
