80 

C -2.113150 2.754760 -1.614540
C -3.312790 2.436890 -0.952760
C -4.071680 1.268310 -1.290610
C -1.648470 1.874260 -2.678830
C -2.420460 0.759890 -3.008810
C -3.643560 0.452990 -2.328130
C 2.013870 2.707410 -2.474630
C 0.598730 2.860200 -2.549250
C -0.230620 1.848850 -3.051710
C 2.609180 1.539910 -2.944550
C 1.774290 0.476710 -3.402410
C 0.382880 0.601680 -3.466430
C -4.589380 -0.705260 0.075200
C -4.193680 -1.556480 -1.033120
C -4.591590 0.676300 -0.066280
C -3.761280 -0.989790 -2.226980
C -2.626190 -1.564840 -2.927070
C -3.470370 -2.689660 -0.476370
C -2.463830 -3.295730 -1.193860
C -2.028330 -2.731190 -2.457570
C -0.402850 -0.627810 -3.462960
C -1.793860 -0.502670 -3.392000
C -0.613620 -2.884240 -2.539400
C 0.212930 -1.873990 -3.048520
C -3.751920 0.962570 2.231640
C -3.629920 -0.479830 2.332070
C -4.192170 1.528310 1.040160
C -4.061430 -1.296020 1.296760
C -3.301270 -2.462730 0.955200
C -2.402440 -0.783870 3.006480
C -1.629260 -1.896300 2.672700
C -2.097420 -2.777870 1.610840
C -1.119460 -3.584430 0.884170
C 0.193070 -3.657010 1.373370
C -1.295260 -3.801710 -0.506600
C -2.465830 3.271470 1.192270
C -2.022150 2.707950 2.453620
C -3.474700 2.663290 0.479870
C -2.614560 1.540120 2.926080
C -1.776940 0.480070 3.386530
C -0.607340 2.864430 2.528090
C 0.224600 1.856330 3.032740
C -0.385780 0.608610 3.450340
C 0.619740 -2.876740 2.531410
C -0.209460 -1.867440 3.038200
C 0.403180 -0.618820 3.449700
C 1.793950 -0.490350 3.378270
C 0.176360 3.639330 -1.388870
C -1.133320 3.563540 -0.892750
C -1.302120 3.780280 0.498960
C -0.186820 3.641980 1.365980
C 1.123090 3.568340 0.869950
C 1.291350 3.782400 -0.522250
C 3.466670 2.670680 -0.501100
C 2.456200 3.274890 -1.214640
C 2.417320 0.772820 2.991930
C 1.642430 1.884460 2.659600
C 2.104960 2.763600 1.593260
C 3.305340 2.447120 0.931940
C 3.762590 -0.975280 2.214100
C 3.641150 0.467380 2.311760
C 4.067190 1.281220 1.272270
C 4.196490 -1.543790 1.021630
C 2.471040 -3.286800 1.186790
C 2.034060 -2.720370 2.449170
C 2.628980 -1.551390 2.915840
C 3.476040 -2.680100 0.467730
C -0.184950 -3.660740 -1.379530
C 1.127380 -3.583810 -0.890500
C 1.303710 -3.797320 0.500780
C 3.629700 -0.476360 -2.346030
C 2.402940 -0.784910 -3.019480
C 1.632730 -1.898550 -2.682980
C 4.063440 -1.289190 -1.308920
C 3.306350 -2.457000 -0.964420
C 2.103230 -2.776560 -1.619180
C 4.588530 0.687630 0.049340
C 4.186920 1.536170 -1.058950
C 3.747990 0.966580 -2.249070
C 4.589920 -0.694300 -0.088840
