80 

C 4.463770 0.009530 0.700130
C 3.986770 1.171820 1.418500
C 4.465000 0.013000 -0.694000
C 3.613340 2.310900 0.734660
C 1.029340 0.701340 3.616670
C 3.169590 0.720840 2.527960
C 2.033590 1.442010 2.945290
C 1.646480 2.663030 2.238830
C 0.241810 3.089150 2.245810
C 2.473390 3.085990 1.182800
C -0.218810 3.885890 1.186190
C 3.619270 -2.290120 -0.729820
C 3.618340 -2.293820 0.722720
C 3.991590 -1.150370 -1.413120
C 3.989350 -1.157490 1.412490
C 3.171340 -0.714190 2.524330
C 2.037120 -1.440340 2.938030
C 1.031120 -0.705750 3.613070
C 0.598810 -4.070490 -0.010320
C 2.481910 -3.067940 -1.179710
C 1.914240 -3.680610 -0.008410
C 1.652860 -2.658640 2.225250
C 2.480510 -3.074060 1.166850
C -0.209290 -3.881070 1.166190
C 0.249350 -3.088470 2.229980
C -0.207890 -3.875150 -1.186900
C 0.252040 -3.076960 -2.245950
C 1.655620 -2.647070 -2.237000
C 2.041130 -1.425200 -2.942910
C 3.175110 -0.701330 -2.523810
C 1.036090 -0.687100 -3.615510
C -1.593840 -3.863510 -0.743550
C -2.536110 -3.146600 -1.434440
C -2.123460 -2.353260 -2.577120
C -0.750640 -2.298190 -2.989580
C -0.340660 -1.142620 -3.661000
C -2.537730 -3.154030 1.414650
C -1.594730 -3.867100 0.721210
C -0.345620 -1.161580 3.654290
C -0.754390 -2.313630 2.976340
C -2.126640 -2.366490 2.561920
C 1.034420 0.719980 -3.611610
C 2.037820 1.456930 -2.935100
C 3.173510 0.733630 -2.519990
C 3.989090 1.178970 -1.407010
C 3.614410 2.314500 -0.717850
C 0.244950 3.100640 -2.229590
C 1.649640 2.674250 -2.222910
C 2.475060 3.091860 -1.163610
C -0.217140 3.892030 -1.166590
C 0.589030 4.083310 0.010850
C 1.905620 3.697090 0.010730
C -0.343410 1.172260 -3.654680
C -2.128930 2.372290 -2.564510
C -0.755980 2.323160 -2.977230
C -2.943780 -1.211810 -2.609590
C -2.466810 0.010630 -3.157420
C -1.181210 0.013940 -3.736680
C -2.946560 1.228950 -2.603110
C -3.573950 2.414140 -0.704940
C -2.543600 3.158550 -1.417860
C -1.603260 3.874290 -0.723470
C -3.575150 2.410560 0.712790
C -3.804610 -1.215790 -1.412390
C -4.100510 0.002120 -0.721160
C -3.807490 1.224280 -1.406050
C -3.806530 -1.223180 1.401220
C -3.569280 -2.412360 0.700410
C -3.568400 -2.408580 -0.717490
C -3.809570 1.217130 1.407510
C -4.101580 -0.001590 0.716020
C -1.186360 -0.005400 3.734970
C -2.950220 1.215730 2.605610
C -2.471150 -0.005580 3.154100
C -2.947210 -1.225280 2.599410
C -1.604300 3.870500 0.741130
C -2.545740 3.151290 1.430820
C -2.132550 2.359140 2.573980
C -0.760130 2.307790 2.988150
C -0.348500 1.153330 3.660300
