96 

C -.44315 3.99302 1.36933
C -.11889 4.47009 .09916
C -1.11793 2.21012 3.49045
C .26138 2.44063 3.22138
C .62382 3.37823 2.17667
C 1.96367 3.36514 1.67695
C 2.91798 2.50506 2.29467
C .69782 .13194 4.05847
C 1.18234 1.44812 3.66949
C 2.53808 1.57099 3.26231
C 1.58585 -.98271 3.93757
C 2.95051 -.82617 3.46768
C 3.41876 .41281 3.14418
C -.68987 -.14061 4.06257
C -1.17640 -1.45720 3.67771
C -1.57842 .97405 3.94574
C -2.53435 -1.58051 3.27843
C 2.24533 3.80111 .31390
C 1.19238 4.29393 -.45467
C 4.04913 1.93897 1.54830
C 4.23594 2.26780 .22989
C 3.34022 3.22838 -.40278
C 4.25877 .59279 1.97723
C 4.57532 1.25191 -.71775
C 4.63234 -.10534 -.35282
C 4.48136 -.44962 1.05690
C 3.79492 -2.74224 .42259
C 4.01724 -1.78881 1.43150
C 3.27754 -1.95628 2.63155
C 4.01491 1.68220 -1.98608
C 3.20653 2.87094 -1.75619
C 1.97321 3.07686 -2.44820
C 1.05782 3.93465 -1.83971
C 3.59943 .75863 -2.90147
C 3.78799 -.64574 -2.63147
C 3.92905 -2.39082 -.98790
C 4.29566 -1.09291 -1.38201
C 2.32331 .92695 -3.59028
C 1.46534 2.04079 -3.33575
C -.86348 2.87019 -2.96068
C -.33775 3.88577 -2.16222
C -1.05386 4.39242 -1.00632
C -2.35139 4.02731 -.78601
C -.44405 .56377 -3.89081
C .06348 1.87855 -3.52947
C -1.84018 .33021 -3.81350
C -2.75381 1.31451 -3.25058
C -2.27797 2.54290 -2.77637
C -3.00628 3.13468 -1.71070
C 2.98359 -3.14926 -1.72534
C 2.25004 -2.55844 -2.78774
C 2.72372 -1.33053 -3.26580
C 1.80694 -.34657 -3.82408
C -.09544 -1.89462 -3.52794
C .41036 -.58018 -3.89294
C -2.16879 2.82803 2.69645
C -1.84939 3.66816 1.62118
C -2.78386 3.70766 .55298
C -3.80644 2.72989 .44185
C -4.02337 1.77743 1.45282
C -3.27721 1.94634 2.64855
C -3.41567 -.42238 3.16426
C -2.94573 .81709 3.48383
C -4.59248 -1.26543 -.69060
C -4.64775 .09210 -.32649
C -4.48951 .43781 1.08206
C -4.26208 -.60361 2.00209
C -3.94792 2.37699 -.96750
C -3.81475 .63030 -2.60989
C -4.31629 1.07863 -1.35838
C -3.35566 -3.24135 -.38089
C -4.24817 -2.28027 .25604
C -4.05463 -1.95007 1.57314
C -1.20819 -4.30651 -.44411
C -2.25689 -3.81319 .33015
C -3.62775 -.77411 -2.87990
C -1.08094 -3.94884 -1.83036
C -1.99950 -3.09169 -2.43438
C -3.22894 -2.88514 -1.73531
C -4.03862 -1.69675 -1.96158
C 2.33349 -4.04071 -.79600
C 1.03488 -4.40578 -1.00849
C .31282 -3.90026 -2.16091
C .83458 -2.88573 -2.96353
C -1.49623 -2.05662 -3.32574
C -2.35548 -.94299 -3.57586
C 2.16962 -2.83785 2.68660
C 1.84451 -3.67896 1.61388
C 2.77307 -3.71970 .54039
C -2.91938 -2.51537 2.31358
C -1.96824 -3.37587 1.69129
C -.62562 -3.38847 2.18338
C -.25770 -2.44995 3.22518
C 1.12315 -2.21923 3.48597
C .10607 -4.48215 .10247
C .43712 -4.00385 1.37046
