96 

C 3.25966 -1.80751 2.33315
C 1.92218 -2.13573 2.54689
C 1.46908 -3.41966 2.05027
C .05525 -3.72034 2.04738
C -.40734 -4.73029 1.17912
C -1.76972 -4.75504 .73663
C -.88347 -2.73226 2.54072
C -2.23787 -2.97628 2.32081
C -2.70286 -3.99287 1.40352
C 2.81166 .60296 2.55386
C -.45041 -1.36416 2.83868
C 3.70112 -.44781 2.33653
C .96849 -1.06245 2.84189
C -2.69740 -3.98838 -1.39225
C -3.85931 -3.47528 -.69519
C -1.76687 -4.75262 -.72421
C -3.86203 -3.47748 .70339
C -4.25388 -2.27063 1.40294
C -4.24852 -2.26629 -1.39279
C -4.91177 -1.26093 -.72515
C -4.91444 -1.26326 .73566
C -3.19464 -1.91400 2.32060
C -2.81070 -.59245 2.54039
C -1.40490 -.30448 2.83851
C 1.40893 .29392 2.84532
C 3.26811 -1.79920 -2.29245
C 1.93154 -2.12692 -2.51232
C -.40289 -4.72638 -1.16178
C -2.22893 -2.96883 -2.30472
C -.87373 -2.72383 -2.51863
C .06304 -3.71345 -2.02500
C 1.47679 -3.41269 -2.02199
C -3.18571 -1.90651 -2.30499
C .90131 2.74352 -2.50563
C -.05161 3.73702 -2.28877
C -2.80110 -.58404 -2.51910
C -1.39419 -.29485 -2.81063
C -.43974 -1.35460 -2.81034
C .97899 -1.05268 -2.80696
C -1.44986 3.43959 -2.29223
C 3.70944 -.43943 -2.28908
C -1.91519 2.14439 -2.51255
C -.94623 1.08496 -2.80728
C .44864 1.38174 -2.80380
C 1.41933 .30379 -2.80369
C 2.82069 .61205 -2.50567
C -3.24127 1.82588 -2.02232
C -3.68772 .45095 -2.02572
C -3.88635 2.73238 -1.15608
C -4.74361 .09302 -1.16266
C .38568 -5.03411 .00955
C 2.31110 -4.14914 -1.15613
C 1.71115 -4.75229 .01227
C 4.10730 -2.54070 -1.37751
C 3.56575 -3.61835 -.71289
C 4.10211 -2.54572 1.41848
C 4.95406 -1.60242 .72314
C 3.56297 -3.62087 .74798
C 4.95657 -1.59984 -.67549
C 4.82274 -.33639 -1.37200
C 5.01400 .84823 .75896
C 4.81778 -.34152 1.42394
C 5.01657 .85090 -.70193
C 4.31375 2.01946 -1.14116
C 3.20727 1.91763 -2.00921
C 2.24007 2.99172 -2.00908
C 2.45702 4.08128 -1.14081
C 2.30659 -4.15302 1.18484
C 3.27428 3.86185 .03078
C 4.18117 2.85496 .03062
C 1.36548 4.89948 .75955
C 2.45267 4.07703 1.20018
C .16181 4.82847 1.42467
C -1.07531 5.09793 -.67471
C .16715 4.83330 -1.37138
C 1.36823 4.90206 -.70132
C -1.07797 5.09541 .72394
C -3.23041 3.92218 .74841
C -3.22765 3.92479 -.71244
C -2.09955 4.35130 -1.37692
C -2.10498 4.34624 1.41911
C -4.96740 .90948 .00879
C -3.89091 2.72812 1.18484
C -4.54883 2.19836 .01207
C 4.30961 2.01526 1.19988
C 3.19999 1.91032 2.06360
C 2.23261 2.98445 2.06382
C .89183 2.73458 2.55423
C .43804 1.37180 2.84539
C -.95689 1.07510 2.84185
C -.06040 3.72879 2.33719
C -1.45869 3.43132 2.33371
C -1.92476 2.13535 2.54704
C -3.24893 1.81866 2.05022
C -3.69538 .44398 2.04679
C -4.74788 .08910 1.17825
