96 

C 4.90909 -.10686 -.26767
C 4.79524 1.32407 -.25737
C 4.06100 -2.85528 -.09472
C 4.30991 -2.13020 1.05119
C 4.79414 -.76388 .96660
C 2.97550 -3.78250 -.11932
C 3.39523 -2.21594 2.14591
C 2.25101 -3.00925 2.09718
C 2.06569 -3.88410 .95104
C -.28436 -4.21591 1.60993
C .73582 -4.41523 .66505
C .33480 -4.59112 -.68638
C 4.30166 -.06450 2.12313
C 4.08760 1.32590 2.09840
C 4.41834 2.02755 .89444
C 3.03714 1.84315 2.91219
C 3.39598 -.93543 2.81960
C -.09774 -3.26997 2.70977
C 1.08744 -2.56879 2.87589
C 1.01463 -1.22647 3.40937
C 2.23342 -.43262 3.41371
C 2.13047 .97443 3.54144
C 2.30984 3.05685 2.53975
C 2.59005 3.72030 1.31176
C 3.63624 3.20418 .48588
C 1.52085 4.37717 .67187
C .97824 2.91678 2.97626
C -1.41381 2.84618 2.34105
C -.11028 3.50741 2.29097
C .20097 4.36058 1.22090
C -3.63347 2.57293 1.35111
C -2.43962 3.28366 1.40656
C -1.35079 -2.68814 3.01883
C -1.46521 -1.31823 3.32083
C -.26062 -.57200 3.53237
C -.33864 .89680 3.50135
C .83764 1.61143 3.56938
C -2.72299 -.64320 3.00147
C -2.74344 .80320 2.81888
C -1.53589 1.57573 2.98304
C -3.80845 1.37078 2.10197
C 1.39219 4.33417 -.75957
C 2.27025 3.58767 -1.53728
C 3.49303 3.17687 -.90822
C 4.25041 2.04547 -1.40201
C 3.79227 1.35580 -2.48816
C -.01207 4.40359 -1.08348
C -1.93194 3.46153 -2.14546
C -.55214 3.64593 -2.15417
C .29285 2.67635 -2.83566
C 1.71726 2.75437 -2.61817
C 2.50410 1.69887 -3.08071
C -2.05913 4.04750 .22152
C -.73121 4.50411 .12196
C -2.72078 3.79109 -.99723
C 4.13932 -2.18426 -1.38990
C 4.51659 -.82748 -1.48697
C 3.94590 -.08779 -2.55585
C 2.83186 -.59356 -3.26560
C 2.35063 -1.89275 -3.06031
C 3.12480 -2.73184 -2.22151
C 1.20297 -4.14974 -1.75585
C 2.49751 -3.81693 -1.49061
C .52958 .31495 -3.57440
C 1.91329 .49674 -3.54497
C -3.59102 -.24167 -2.67800
C -2.28663 -.07660 -3.16276
C -1.39514 -1.23315 -3.15404
C -.00228 -1.05295 -3.43743
C .91619 -2.13804 -3.21238
C -1.85046 -2.44519 -2.52776
C -.92600 -3.46713 -2.29141
C .41652 -3.34395 -2.67662
C -.29895 1.46151 -3.32467
C -2.53746 2.32993 -2.80408
C -1.74157 1.26422 -3.23930
C -4.90923 -1.02543 -.90772
C -3.97389 -1.42050 -1.92358
C -3.08488 -2.47126 -1.74526
C -4.83748 -1.63828 .33612
C -3.99297 -2.77971 .51388
C -3.14946 -3.24116 -.51164
C -3.82302 2.12826 -2.20699
C -5.10959 .40826 -1.01229
C -4.36299 .85714 -2.17232
C -4.72308 -.80458 1.52745
C -4.78917 .56317 1.41489
C -5.09779 1.19009 .14143
C -4.43345 2.47690 .13481
C -3.91848 2.98827 -1.04262
C -2.33530 -3.36251 2.21269
C -3.48847 -2.71926 1.88094
C -3.74845 -1.39907 2.40627
C -.99058 -4.28381 -1.07723
C -2.00773 -4.07271 -.13406
C -1.64920 -4.18205 1.23554
