96 

C -3.33762 -2.84673 1.35043
C -4.02447 -1.73630 .86525
C -4.24053 -1.62683 -.57557
C -2.74413 -3.81447 .47052
C -2.86008 -3.65651 -.88662
C -3.68270 -2.61023 -1.41180
C -1.49080 -4.25862 1.04171
C -1.67610 -3.78676 -1.72283
C -.41104 -4.04775 -1.17363
C -.32416 -4.36012 .26130
C 2.11078 -3.94458 .14049
C .94895 -4.22335 .93396
C .99148 -3.82259 2.27898
C -4.49596 -.31310 -1.15745
C -4.66749 .78741 -.30017
C -3.13167 -2.27483 -2.70997
C -3.32620 -1.02567 -3.23228
C -4.04238 -.03190 -2.46807
C .10246 -.14275 -4.29781
C -2.24793 -.37105 -3.93628
C -.98025 -.99512 -4.07093
C -1.83242 -2.92780 -2.83691
C 2.00562 -3.62681 -1.21387
C .73551 -3.53675 -1.87385
C .59676 -2.60382 -2.95194
C -.72852 -2.27483 -3.42105
C 1.72035 -1.69860 -3.26805
C 1.44642 -.53138 -3.96471
C -3.45999 1.22921 -2.76834
C -3.44380 2.27397 -1.83513
C -4.23724 2.08683 -.67134
C -3.98007 2.82853 .54446
C -2.95631 3.74490 .56970
C -2.34274 1.01619 -3.66513
C -.01397 1.26168 -4.10980
C -1.19198 1.83135 -3.60334
C -1.10656 2.89654 -2.59533
C -2.26744 3.15192 -1.76995
C -2.09745 3.90416 -.59644
C -3.35131 2.01067 2.78237
C -2.30772 3.02336 2.83375
C -4.18368 1.92814 1.66948
C -2.12396 3.87987 1.75443
C -.79795 4.18893 1.32379
C -1.15994 2.44210 3.45952
C .14303 2.76983 3.08252
C .32955 3.70798 1.99234
C 2.75870 3.54588 -.85953
C 1.61144 3.92299 -.15444
C 1.59897 3.73812 1.27928
C 2.69766 3.11792 1.88929
C 1.27863 1.76686 -3.74088
C 1.39578 2.81719 -2.81051
C .19075 3.35388 -2.17300
C .34042 3.97708 -.88066
C -.80392 4.24873 -.13509
C 2.64218 2.94151 -2.17230
C -4.05930 -.54112 1.71365
C -3.18371 -.45333 2.86527
C -4.53544 .65195 1.14765
C -2.84283 .81353 3.36088
C -.97661 -1.28315 3.76045
C -2.29018 -1.55636 3.19038
C -2.49724 -2.77107 2.53354
C .00500 -2.26620 3.67582
C -.21168 -3.48945 2.97020
C -1.43847 -3.72651 2.37401
C -1.49174 1.08815 3.83352
C 2.47975 2.09302 2.90365
C 1.19458 1.81274 3.38710
C .87893 .46493 3.76358
C -.53253 .09873 3.93264
C 1.85572 -.56406 3.54577
C 1.40784 -1.92582 3.53838
C 4.36444 1.50859 1.69534
C 3.45223 1.08088 2.73462
C 3.12128 -.27431 2.93354
C 4.92370 .56904 .85986
C 4.65818 -.83498 1.08207
C 3.78190 -1.27765 2.09392
C 4.45726 1.97527 -1.09753
C 3.90233 2.98806 -.21566
C 3.86558 2.76229 1.15773
C 4.95499 .80059 -.57936
C 2.19484 .68515 -3.73428
C 3.34384 .70599 -2.92746
C 3.64509 1.93444 -2.29186
C 3.93537 -2.62983 -.40447
C 3.11528 -2.77164 -1.57061
C 2.97159 -1.74458 -2.49926
C 4.66181 -1.47139 -.21023
C 4.66810 -.46288 -1.23488
C 3.79655 -.54514 -2.33756
C 2.01539 -2.88798 2.73249
C 3.15363 -2.56977 1.92262
C 3.25940 -3.23998 .69180
