96 

C 3.50079 -3.59262 .25249
C -.48381 -4.46583 1.27303
C .89077 -4.35409 1.07209
C 1.36751 -4.65664 -.23114
C 2.67370 -4.21873 -.65704
C -2.67913 -4.22660 .61477
C -1.37252 -4.65958 .18472
C -.89616 -4.34528 -1.11585
C .47850 -4.45411 -1.31793
C -3.50693 -3.59294 -.28842
C 4.37020 -2.08502 -1.47911
C 3.32288 -2.57154 -2.36167
C 4.42690 -2.55785 -.17975
C 2.53192 -3.65418 -1.99030
C 1.15748 -3.65796 -2.32802
C .52031 -2.51391 -2.86870
C -1.64255 -3.40348 -1.93907
C -2.95883 -3.16422 -1.56740
C 4.55074 1.60201 -.89483
C 4.86071 .24923 -.67864
C 4.49250 -.65652 -1.71294
C 3.50350 -.29101 -2.65154
C .70281 -.03345 -3.23924
C 1.53013 1.16691 -2.98564
C 2.93677 .99613 -2.66101
C 3.61553 1.97252 -1.91412
C -2.71059 1.48190 -2.98037
C -1.31544 1.38688 -3.15957
C .91804 2.40560 -2.68541
C -.91725 -2.38216 -2.71245
C 1.31808 -1.35885 -3.16753
C 2.71242 -1.45538 -2.98357
C -3.61761 -1.95625 -1.94747
C -2.93629 -.97274 -2.68239
C -1.52838 -1.14062 -3.00305
C -.70005 .06208 -3.24150
C -3.50294 .31440 -2.66265
C 4.85842 -.24700 .69631
C 4.54852 -1.60008 .91104
C 4.42438 2.55978 .19543
C 4.36312 2.08708 1.49483
C 4.48574 .65867 1.72918
C 3.49904 3.59384 -.24036
C 3.31201 2.57308 2.37315
C 2.52161 3.65508 1.99840
C 2.66788 4.21942 .66572
C 1.36294 4.65632 .23455
C -.48251 4.46447 -1.27708
C .89142 4.35369 -1.07056
C -.51877 2.53888 -2.84612
C 1.64065 3.41948 -1.89952
C 2.95551 3.17691 -1.52514
C -1.15777 3.67784 -2.29715
C 3.49342 .29262 2.66398
C 2.92755 -.99494 2.67097
C 3.60973 -1.97107 1.92673
C 2.95206 -3.17590 1.53511
C .90971 -2.40562 2.68693
C 1.63594 -3.41927 1.90404
C .69055 .03322 3.24000
C 1.51974 -1.16659 2.98965
C -1.32622 -1.38867 3.15220
C -.52751 -2.54006 2.84186
C -1.16345 -3.67959 2.29044
C -2.72042 -1.48493 2.96755
C -3.32963 -2.59573 2.33509
C -2.53773 -3.67410 1.95323
C -1.54047 1.13872 2.99511
C -.71219 -.06338 3.23669
C 2.70008 1.45652 2.99277
C 1.14588 3.65814 2.33078
C .50753 2.51362 2.86897
C 1.30497 1.35908 3.17097
C -1.65261 3.40146 1.93077
C -.92930 2.38078 2.70693
C -2.96726 3.16103 1.55397
C -3.62629 1.95238 1.93120
C -2.94689 .96955 2.66873
C -3.51241 -.31807 2.64676
C -2.68022 4.22348 -.62733
C -1.37554 4.65742 -.19221
C -.90386 4.34369 1.11025
C .46995 4.45349 1.31785
C -3.51088 3.58919 .27272
C -4.37375 2.09746 -1.47649
C -3.32305 2.59217 -2.35025
C -2.53334 3.67112 -1.96524
C -4.43511 2.55826 -.17301
C -4.55639 -1.59511 -.92799
C -4.86729 -.24429 -.70021
C -4.49536 .67121 -1.72444
C -4.50097 -.67575 1.70479
C -4.37727 -2.10188 1.45748
C -4.43369 -2.56281 .15382
C -4.56085 1.59043 .90808
C -4.86985 .23940 .67921
