96 

C .20705 -1.78534 -4.00563
C 1.28504 -2.40945 -3.38471
C 2.52122 -1.69525 -3.40892
C 3.58710 -1.98438 -2.46630
C 3.38513 -2.92639 -1.49679
C -1.14250 -2.15173 -3.69872
C -1.43910 -2.97866 -2.61514
C -.31950 -3.53846 -1.84093
C 1.01480 -3.32921 -2.29115
C 2.09137 -3.59484 -1.38897
C -1.85002 -3.84114 .07416
C -.53502 -3.90384 -.44920
C -2.96800 -3.32055 -.70393
C -2.76659 -2.83843 -2.00982
C -3.63624 -1.81167 -2.44935
C 4.49209 -1.10438 1.54812
C 4.57093 -1.50428 .19789
C 3.88962 -2.70234 -.15225
C 2.97310 -3.30118 .73639
C 2.76961 -2.80662 2.03728
C 3.63484 -1.77161 2.46619
C 1.95703 -.94790 4.01972
C 3.17153 -.78349 3.42166
C .54252 -3.89698 .48780
C 1.85729 -3.83409 -.03630
C -2.08529 -3.58936 1.42434
C -1.00981 -3.31021 2.32371
C .32550 -3.51852 1.87569
C 1.44281 -2.94611 2.64396
C 1.14267 -2.10917 3.71874
C 4.74530 -.47522 -.83292
C 4.24646 -.73134 -2.13470
C 4.51606 .30857 1.92068
C 4.67745 1.26784 .95937
C 4.81485 .87946 -.44094
C 3.57069 .52353 2.98298
C 3.77713 2.94535 -.31981
C 4.22088 1.90415 -1.22617
C 3.47150 1.59485 -2.38612
C 3.60187 .28496 -2.87675
C 2.71453 3.72947 -.66300
C .57931 4.48379 -.35556
C 1.78568 4.14229 .34804
C -.60709 4.48482 .30978
C 1.08528 .18452 4.18574
C 1.34152 1.41136 3.56764
C 2.65642 1.59976 2.95902
C 2.84745 2.62793 1.95433
C 3.90694 2.47868 1.03236
C .19866 2.23689 3.16573
C .43920 3.33129 2.24912
C 1.74214 3.49722 1.60055
C -.66856 3.95011 1.65597
C 1.97202 3.46632 -1.89206
C 2.24123 2.35221 -2.68343
C 1.12836 1.73130 -3.38885
C 1.34043 .39914 -3.94402
C 2.53828 -.31393 -3.66195
C .23812 -.37575 -4.29246
C .64303 3.93570 -1.69643
C -1.76559 3.47340 -1.63645
C -.46207 3.30616 -2.28332
C -.21702 2.20363 -3.18903
C -3.92602 2.45147 -1.05842
C -2.86714 2.59582 -1.98169
C -2.67186 1.55830 -2.97609
C -1.35630 1.36918 -3.58271
C -1.09489 .13734 -4.18863
C -1.81198 4.13108 -.39053
C -1.96184 -.99695 -4.01128
C -3.17708 -.83149 -3.41488
C -3.58177 .47819 -2.98943
C -4.82759 .86350 .43080
C -4.69172 1.23827 -.97342
C -4.52647 .27013 -1.92507
C -4.25259 -.72755 2.14094
C -4.75257 -.48670 .83645
C -2.73925 3.72456 .62447
C -3.61223 .29886 2.87256
C -3.48723 1.60421 2.36863
C -4.23792 1.89856 1.20564
C -3.79847 2.93239 .28893
C -.24553 -.33310 4.29450
C -2.54614 -.28762 3.66370
C -1.35123 .43338 3.93834
C -1.14476 1.76078 3.37002
C -2.26022 2.36978 2.65838
C -1.99568 3.47700 1.85610
C -3.38197 -2.92518 1.52527
C -3.58809 -1.97439 2.48519
C -2.52327 -1.67134 3.42460
C -1.28385 -2.38040 3.40754
C -.20835 -1.74539 4.02176
C -4.49662 -1.13871 -1.53821
C -4.57385 -1.52524 -.18395
C -3.88727 -2.71668 .17850
