96 

C -1.94124 -3.17174 2.25390
C -2.70695 -3.39736 1.09198
C -3.95506 -2.73751 1.01937
C -4.59748 -2.46680 -.24993
C -3.90560 -2.75519 -1.41348
C -.51042 -3.40517 2.27518
C .19462 -3.82792 1.09987
C -.53923 -3.89504 -.13204
C -1.99804 -3.72877 -.14021
C -2.61050 -3.39517 -1.34749
C 1.57147 -3.70193 -1.32641
C .17899 -3.65539 -1.34212
C 3.56803 -2.39144 1.88322
C 2.25389 -2.84574 2.11413
C 1.61384 -3.67774 1.09881
C 2.29502 -3.85550 -.12946
C -5.35320 -.31932 -1.19075
C -4.53725 -.58423 -2.36259
C -5.33785 -1.22614 -.13216
C -3.85043 -1.77026 -2.47571
C -2.51327 -1.77096 -3.02692
C -.30879 1.83967 -3.02286
C .37322 .64222 -3.36848
C -1.82176 -.58629 -3.33862
C -2.53405 .67522 -3.17627
C -3.88580 .64705 -2.76378
C .30391 -1.82049 -3.04141
C -.37833 -.61963 -3.37443
C 3.88113 -.63003 -2.77337
C 2.52909 -.65438 -3.18510
C 1.81661 .60870 -3.33413
C 2.50822 1.79038 -3.01116
C -.43556 -2.88731 -2.40741
C -1.81401 -2.85317 -2.43304
C 1.76189 -1.85160 -2.95415
C 2.36199 -2.91220 -2.25882
C -3.67673 2.80800 -1.67369
C -5.28740 1.10100 -.92979
C -4.44721 1.69524 -1.96126
C .43102 2.90031 -2.37896
C -1.76666 1.86999 -2.93405
C -2.36622 2.92371 -2.22776
C 1.80941 2.86671 -2.40623
C -3.63642 3.34046 -.32270
C -4.29790 2.67709 .68645
C -5.17185 1.56066 .38183
C -5.03055 .61067 1.46156
C -5.14420 -.74181 1.21623
C -2.29786 3.84645 -.08936
C -3.56962 2.36300 1.90972
C -2.25539 2.81513 2.14428
C -1.61600 3.65703 1.13664
C -.18277 3.65804 -1.30563
C -1.57518 3.70431 -1.28827
C 2.60664 3.39844 -1.31608
C 1.99505 3.72041 -.10496
C .53621 3.88631 -.09379
C -.19689 3.80745 1.13806
C .50894 3.37340 2.30875
C -2.21816 -2.07286 3.09277
C -4.26603 -1.66604 1.91142
C -3.30096 -1.21055 2.83711
C -3.99227 1.09669 2.36817
C -.07341 2.45082 3.16865
C -1.43581 2.04741 3.02594
C -1.79277 .71295 3.39244
C -3.09008 .21892 3.01830
C -.70786 -.23373 3.72367
C -.96256 -1.58043 3.59280
C .96184 1.53545 3.60755
C .70709 .18743 3.72504
C 3.08873 -.25827 3.01329
C 1.79188 -.75598 3.38334
C 1.43485 -2.08677 3.00383
C .07253 -2.49115 3.14361
C 3.99087 -1.12978 2.35392
C 2.21708 2.03261 3.11112
C 4.26413 1.63740 1.92441
C 3.29965 1.17279 2.84610
C 3.90160 2.75907 -1.38918
C 4.59430 2.45933 -.22897
C 3.95278 2.71766 1.04337
C 2.70484 3.37691 1.12350
C 1.93979 3.13977 2.28376
C 5.34938 .32107 -1.19166
C 4.53267 .59741 -2.36026
C 3.84570 1.78447 -2.46097
C 5.33463 1.21744 -.12412
C 3.67293 -2.80166 -1.70461
C 5.28394 -1.10179 -.94488
C 4.44315 -1.68600 -1.98162
C 5.14201 .71991 1.21954
C 5.02883 -.63500 1.45150
C 5.16939 -1.57438 .36222
C 4.29569 -2.69370 .65630
C 3.63358 -3.34725 -.35888
