96 

C -4.37306 -2.54733 .24067
C -4.52921 -1.71531 1.33284
C -5.05046 -.37173 1.16504
C -4.40420 .45570 2.16269
C -4.16718 1.79323 1.91725
C -3.30135 -3.50411 .22812
C .99320 3.83267 2.02999
C -.33252 3.44367 2.28906
C -1.93508 1.65389 2.99308
C -2.96223 2.40107 2.40415
C -3.38221 -.32086 2.80987
C -1.01832 -.66334 3.30679
C -2.14957 .22895 3.17331
C 1.36892 -.93641 3.60661
C .28218 -.07799 3.54734
C .52841 1.35601 3.31916
C -.57300 2.20095 2.97504
C 1.87821 1.79960 3.07136
C 2.07864 3.04790 2.44748
C -2.35505 -2.49474 2.25692
C -3.47684 -1.67207 2.32078
C 1.39483 -4.26831 1.25550
C .12706 -3.89211 1.74245
C .06276 -2.83285 2.74204
C -1.12781 -2.02659 2.88341
C 1.26275 -2.31045 3.22975
C -2.30210 -3.51507 1.22064
C -.81943 -4.61118 -.40658
C -1.03065 -4.14984 .90783
C -1.36179 4.01186 1.42824
C -2.64752 3.48954 1.50148
C 1.37163 4.49188 .77691
C .41177 4.77857 -.15033
C -.98335 4.60576 .19011
C 1.66671 2.78579 -2.99027
C .60505 4.35609 -1.52309
C 1.79360 3.69131 -1.92389
C 4.11023 2.27663 1.30772
C 3.16602 3.25061 1.48728
C 2.65419 3.96197 .36002
C 4.51650 1.91137 -.01312
C 3.82913 2.40430 -1.14034
C 2.87263 3.48946 -.94991
C 2.72054 -.49611 3.32358
C 2.98128 .83944 3.00360
C 4.08675 1.08818 2.14696
C -1.65384 4.20838 -.98354
C -2.84890 3.46870 -.93020
C -3.46502 3.36491 .33833
C -4.45324 2.34871 .60753
C -4.84908 1.50500 -.41237
C -.66452 3.96970 -2.02079
C .38700 2.34575 -3.42516
C -.79698 2.85242 -2.87569
C -1.95739 1.97506 -2.76545
C -3.05486 2.39838 -1.90569
C -4.08635 1.50091 -1.65728
C -4.48700 -1.98423 -1.09956
C -5.23126 .13980 -.12101
C -4.82367 -.66146 -1.25931
C -2.91617 -3.66159 -1.15798
C -3.44816 -2.55393 -1.91566
C -1.68707 -4.15592 -1.46102
C .48967 .96017 -3.79101
C -.54222 .06613 -3.57780
C -1.84066 .60112 -3.14891
C -2.88379 -.33160 -2.79005
C -4.02844 .15897 -2.14342
C -.19806 -1.34761 -3.37784
C -1.24769 -2.24989 -2.98124
C -2.59775 -1.75672 -2.70322
C -.88475 -3.50647 -2.47457
C 1.87086 .58028 -3.67374
C 3.47786 -.92071 -2.73695
C 2.22838 -.73932 -3.36847
C 1.17670 -1.73999 -3.22794
C 1.51078 -2.98002 -2.54873
C .47088 -3.83770 -2.20544
C 4.98351 .53960 .07597
C 4.86519 -.29486 -1.00130
C 4.18907 .17738 -2.19247
C 3.67893 1.49818 -2.28216
C 2.59521 1.68655 -3.15709
C 3.42678 -1.56403 2.71397
C 4.30725 -1.31488 1.63292
C 4.68297 .03327 1.41582
C 3.46123 -3.37484 .55369
C 2.60738 -3.64035 1.71017
C 2.54844 -2.71992 2.72480
C 4.52554 -1.69401 -.80588
C 4.27927 -2.22754 .48779
C .49850 -4.61825 -.97003
C 3.72231 -2.08286 -1.90042
C 2.76406 -3.10263 -1.79089
C 2.78221 -3.86140 -.59618
C 1.58548 -4.54322 -.14446
