96 

C .26204 3.42346 2.72980
C -.94652 2.76863 2.92923
C -2.10720 3.19461 2.14685
C -3.28578 2.32959 2.06978
C -4.11636 2.37811 .89864
C -3.28805 1.14753 2.80465
C 1.52317 2.77607 2.98953
C 1.60224 1.42912 3.35822
C .35339 .71018 3.61035
C -.88931 1.42170 3.48904
C -2.08913 .68799 3.49301
C 1.60016 -1.45447 3.34985
C .35238 -.73506 3.60613
C -.89136 -1.44402 3.48063
C -2.09010 -.70875 3.48889
C 1.51918 -2.79911 2.97347
C 2.82708 .71050 3.04871
C 3.83966 1.37705 2.32391
C 2.82610 -.73610 3.04452
C -4.01440 -.00595 2.36688
C -4.69969 -.00196 1.13264
C -4.74348 1.22526 .40510
C -4.74523 -1.22486 .39800
C -3.28960 -1.16283 2.79780
C -3.28910 -2.34062 2.05608
C -4.11993 -2.38143 .88483
C -2.61655 -3.96831 -.18348
C -3.70263 -3.15525 -.26989
C .25712 -3.44287 2.70980
C -.95048 -2.78749 2.91294
C -2.11174 -3.20744 2.12809
C -1.91014 -4.11878 1.07895
C -4.62529 -1.21947 -1.07374
C -4.47598 .00624 -1.78516
C -4.62339 1.22810 -1.06659
C -3.62700 .00868 -2.91122
C -2.84388 -1.14355 -3.23908
C -2.90250 -2.30732 -2.47967
C -3.91298 -2.36379 -1.46156
C -2.84180 1.16139 -3.23204
C -2.89856 2.32092 -2.46593
C -3.90909 2.37345 -1.44770
C -3.69779 3.15788 -.25157
C -2.61082 3.96893 -.16043
C -1.58793 .70589 -3.79652
C -.37837 1.44510 -3.64640
C -.40824 2.68171 -2.89105
C -1.67529 3.12226 -2.30663
C -1.62543 4.01137 -1.23669
C 2.03457 2.57867 -2.76969
C .82151 3.19837 -2.37352
C 2.04611 -1.39373 -3.53260
C .83366 -.72089 -3.84909
C .83472 .73625 -3.84461
C 2.04808 1.40564 -3.52420
C -1.63136 -4.00648 -1.26005
C -1.68026 -3.11143 -2.32514
C .81681 -3.19097 -2.39229
C -.41241 -2.66971 -2.90710
C -.38065 -1.42901 -3.65535
C -1.58915 -.68700 -3.80091
C 2.03090 -2.57087 -2.78470
C .45222 4.33642 1.63176
C -1.90434 4.11164 1.10292
C -.59264 4.57781 .77290
C .84566 4.00905 -1.16540
C -.38157 4.42234 -.65164
C 1.77779 4.15675 1.11097
C 2.00082 3.95461 -.25893
C 3.22773 2.59531 -1.92003
C 3.19525 3.20223 -.64809
C 4.02506 2.64032 .35010
C 3.60296 2.66312 1.74144
C 2.48788 3.36631 2.09689
C 3.96356 1.41490 -2.15797
C 4.62649 .73240 -1.10119
C 4.70660 1.41021 .13370
C 3.96139 -1.41307 -2.16605
C 3.26897 -.67761 -3.21078
C 3.27000 .68623 -3.20676
C 4.70444 -1.42236 .12547
C 4.62544 -.73749 -1.10541
C -.38796 -4.42237 -.67723
C 1.99512 -3.96043 -.28154
C .83992 -4.00806 -1.18854
C 4.02120 -2.65264 .33492
C 3.19066 -3.20773 -.66642
C 3.22399 -2.59373 -1.93488
C 3.59921 -2.68260 1.72622
C 2.48307 -3.38599 2.07770
C 1.77186 -4.16967 1.08719
C .44602 -4.34996 1.60666
C -.59914 -4.58500 .74638
C 4.67990 .67279 1.39290
C 4.67892 -.69202 1.38895
C 3.83774 -1.40017 2.31601
