96 

C -4.62348 -.12508 1.46259
C -4.31939 1.23981 1.58204
C -3.44152 1.60980 2.64771
C -2.64769 2.83019 2.59695
C -2.70511 3.63078 1.48653
C -5.03696 -.71605 .20063
C -5.00420 .05195 -.94985
C -4.59018 1.44214 -.86760
C -4.32492 2.06498 .37223
C -3.49465 3.21135 .33573
C .89542 4.32717 .90252
C -.25436 4.08024 1.66712
C -1.48903 4.23992 .99697
C -3.77542 1.72507 -2.00300
C -2.75866 2.69174 -1.95423
C -2.75112 3.53332 -.82354
C -1.53378 4.20036 -.42216
C -.36410 4.10345 -1.19081
C .83973 4.37817 -.51102
C -.16324 3.12910 2.77336
C -1.36305 2.55837 3.21960
C 2.18271 3.79678 1.28833
C 2.28648 2.86385 2.32702
C 1.07042 2.41831 3.02143
C 3.41752 2.00609 2.29411
C 2.96974 3.65900 .09904
C 4.21074 2.08749 -1.26885
C 3.98297 2.69002 .00776
C 4.26308 1.92365 1.17482
C 3.35057 2.35286 -2.34204
C 2.11443 3.94027 -1.02280
C -1.52277 2.48509 -2.71489
C -.33678 3.23622 -2.37418
C 2.19407 3.19615 -2.19468
C .94586 2.83264 -2.88876
C 3.38366 .71159 2.92765
C 2.22258 .24526 3.52385
C 1.02758 1.09412 3.57138
C -.24909 .45386 3.79248
C -1.39783 1.22350 3.68404
C 2.06295 -1.17721 3.61033
C 4.26130 -.17152 2.19194
C 4.25253 -2.21935 .89373
C 3.98279 -1.55919 2.11321
C 2.90647 -2.05702 2.93069
C 4.65485 .68580 -1.36010
C 4.90789 -.08661 -.17666
C 4.76406 .54869 1.08204
C 4.65924 -1.47872 -.24736
C .74042 -1.77156 3.65947
C -.40391 -1.01317 3.68080
C -1.64423 -1.59772 3.14001
C -2.80446 -.73790 3.02083
C -2.68803 .64143 3.33191
C -3.86213 -1.10848 2.18018
C .79708 -3.04286 2.99404
C -.07788 -4.34270 1.17416
C -.33237 -3.53665 2.29849
C -1.59806 -2.81405 2.40125
C -2.65608 -3.11817 1.43160
C -3.78359 -2.30259 1.38968
C 3.39099 -3.31220 .43474
C 2.33771 -3.82805 1.25875
C 2.11510 -3.21977 2.52024
C 1.22808 -4.39561 .60467
C -1.03096 -4.39077 .08617
C -2.32359 -3.85913 .21455
C -2.98511 -3.53773 -.99275
C -4.12243 -2.64669 -1.01003
C -4.55276 -2.08268 .17479
C -.31874 -4.29805 -1.13016
C .04665 -2.65604 -2.94669
C -.83853 -3.54840 -2.20437
C -2.21750 -3.29566 -2.17052
C .28324 -.48870 -4.02515
C -.55094 -1.51614 -3.59360
C 3.20753 -3.17407 -.94491
C 1.67948 -.54388 -3.85513
C 2.28958 -1.57569 -3.12019
C 1.46111 -2.66420 -2.66378
C 1.97241 -3.51925 -1.58096
C 1.08496 -4.27925 -.82646
C 2.15500 .83430 -3.81234
C 3.29674 1.14796 -3.14786
C 4.04907 .10382 -2.47660
C 3.56777 -1.25541 -2.45124
C 3.99059 -2.04395 -1.39328
C -1.39803 1.26803 -3.46735
C -.14057 .91297 -3.95797
C .99403 1.71259 -3.74332
C -2.79932 -2.16060 -2.86177
C -4.02207 -1.82532 -2.19902
C -4.43557 -.50259 -2.16147
C -1.97226 -1.19237 -3.42811
C -2.39671 .20025 -3.37077
C -3.61550 .50120 -2.76559
