96 

C 3.85591 -2.04023 -1.69514
C 2.76333 -2.48657 -2.43115
C 2.34190 -1.65348 -3.51695
C .99717 -1.74288 -4.04752
C .16321 -2.72690 -3.60664
C 4.02892 -2.41729 -.31391
C 3.02678 -3.10140 .37372
C 1.85322 -3.58665 -.37822
C 1.78527 -3.34727 -1.77743
C .53544 -3.52713 -2.44159
C .61825 -3.81081 1.75293
C .62486 -3.91415 .33675
C 1.74459 -3.23367 2.47601
C 2.92989 -2.86649 1.80962
C 3.68807 -1.83447 2.40444
C -3.04668 -.90342 -3.28854
C -1.78134 -1.16648 -3.79053
C -1.25698 -2.47182 -3.53880
C -1.75826 -3.21991 -2.46145
C -2.94145 -2.84706 -1.79456
C -3.69378 -1.80949 -2.38742
C -4.84864 -1.36819 -.29578
C -4.64882 -1.05149 -1.62520
C -.64225 -3.91022 -.32358
C -.63508 -3.80452 -1.73948
C -.55064 -3.52826 2.45558
C -1.79953 -3.34042 1.79149
C -1.86889 -3.57707 .39185
C -3.03968 -3.08385 -.35923
C -4.03802 -2.39525 .32948
C -.85988 -.05054 -3.97452
C .48918 -.38440 -4.21981
C 1.52780 .49266 -3.89799
C -3.45750 .44626 -2.96910
C -2.52651 1.49369 -2.92878
C -1.17028 1.24850 -3.44955
C -.09548 2.15027 -3.11050
C 1.27447 1.74492 -3.30997
C -.36945 3.28700 -2.23135
C .71514 3.93386 -1.63580
C -4.53841 .33932 -2.02984
C -2.77470 2.58174 -2.00294
C -1.68253 3.46442 -1.62905
C -4.73679 1.34631 -1.10631
C -3.89390 2.50387 -1.14538
C 2.07013 3.47154 -1.79301
C 2.37384 2.35727 -2.56098
C 3.58071 1.58819 -2.22011
C 2.76482 3.74220 -.55830
C 3.82728 2.96990 -.18947
C 4.32036 1.95995 -1.08602
C -.58955 4.49047 .33294
C .61795 4.48753 -.30481
C 1.79863 4.14143 .43070
C -1.77238 4.15288 -.40307
C 3.69933 .21032 -2.67176
C 2.70705 -.29968 -3.53936
C 5.00990 .98554 -.26515
C 5.04844 -.33692 -.65810
C 4.40192 -.72666 -1.88729
C 4.74771 1.31754 1.12899
C 4.84518 -1.39594 .31330
C 4.64715 -1.08054 1.64340
C 4.54422 .31005 2.05067
C 3.91097 2.47953 1.17030
C 2.79232 2.56194 2.02803
C 1.70503 3.45123 1.65552
C -.68978 3.93429 1.66276
C .39108 3.28007 2.25739
C -1.26116 1.74560 3.33330
C .11096 2.14339 3.13463
C 1.18096 1.23509 3.47236
C 2.53850 1.47365 2.95193
C 3.46408 .42132 2.99034
C -1.52121 .49371 3.91948
C -.48741 -.38958 4.24009
C .86371 -.06276 3.99531
C -4.30584 1.98207 1.10999
C -3.80752 2.99117 .21530
C -2.74073 3.75687 .58526
C -3.56811 1.60389 2.24324
C -2.35703 2.36552 2.58524
C -2.04726 3.47942 1.81916
C -4.40172 -.70550 1.90596
C -5.04624 -.30991 .67754
C -5.00075 1.01307 .28719
C -2.70467 -.29141 3.55923
C -3.69409 .22579 2.69229
C -.17408 -2.73234 3.62229
C -1.00274 -1.74481 4.06514
C -2.34686 -1.64706 3.53423
C -2.77286 -2.47561 2.44646
C -3.86299 -2.02184 1.71120
C 3.04613 -.92635 3.30758
C 1.77933 -1.18311 3.80937
C 1.24755 -2.48495 3.55496
