96 

C -.06697 3.42737 -2.73965
C 1.02308 2.70166 -3.21546
C 2.28333 3.00836 -2.63200
C 3.37869 2.05595 -2.66103
C 3.19864 .85844 -3.29085
C -1.41071 2.94713 -2.90713
C -1.67458 1.63761 -3.32123
C -.53815 .78940 -3.71101
C .77782 1.36883 -3.75697
C 1.89813 .51218 -3.85331
C -1.97185 -1.23110 -3.31034
C -.68136 -.64549 -3.67397
C .49401 -1.47806 -3.62479
C 1.75630 -.87560 -3.75414
C -1.99607 -2.57232 -2.91977
C -2.94809 1.04927 -2.92599
C -3.82929 1.81149 -2.12700
C -3.10245 -.38929 -2.93438
C 4.45719 -1.52028 -.75046
C 4.43624 -.31091 -1.46801
C 3.78509 -.33610 -2.73109
C 2.94499 -1.41688 -3.09369
C 2.86932 -2.57851 -2.31177
C 3.74591 -2.66223 -1.19902
C 2.20533 -4.13750 -.02785
C 3.36526 -3.41792 -.02569
C -.78997 -3.33443 -2.72400
C .45871 -2.80892 -3.02219
C 1.62085 -3.33235 -2.30276
C 1.39940 -4.21092 -1.22834
C 4.51960 .95507 -.73101
C 4.07883 2.11616 -1.38977
C 4.46048 -1.52843 .70885
C 4.45948 -.32851 1.44454
C 4.52044 .94748 .72860
C 3.85701 -.37766 2.72560
C 3.02883 -1.47042 3.09564
C 2.85959 -2.58190 2.26291
C 3.73426 -2.66299 1.14764
C 3.28677 .80435 3.32910
C 3.34379 1.99680 2.66705
C 4.04829 2.09080 1.40421
C 3.44995 3.17957 .70050
C 3.50178 3.20993 -.66987
C 2.06638 .42786 4.00976
C .92170 1.27546 3.99212
C -.29293 .66254 4.26619
C 1.30235 -4.07870 1.11726
C 1.54254 -3.23706 2.20045
C .39397 -2.67894 2.90047
C .63733 -1.56719 3.81137
C 1.92068 -.96738 3.88331
C -.43297 -.76285 4.20174
C .00766 4.13363 -1.50046
C 2.35730 3.71438 -1.41043
C 1.17340 4.12446 -.73917
C .92011 2.47481 3.15942
C 2.15801 2.85433 2.59984
C 2.22202 3.57683 1.39939
C -1.53554 1.26093 3.86249
C -1.57394 2.32179 2.95059
C -.29989 2.93039 2.53757
C -.23449 3.66865 1.30472
C 1.05068 3.94629 .70731
C -1.44440 3.80013 .47805
C -1.28853 4.09950 -.87917
C -2.18756 3.56790 -1.86699
C -3.36958 3.01323 -1.47982
C -3.69988 2.96243 -.07865
C -3.82669 1.54112 2.31043
C -2.77555 2.47023 2.14062
C -2.71037 3.21090 .89821
C -4.89870 -.24466 1.22671
C -4.73230 1.20619 1.24491
C -4.66646 1.90701 .06204
C -4.99483 -.91252 .02533
C -2.48832 .18796 3.80070
C -4.09059 -.79952 2.27753
C -3.61519 .32339 3.04867
C -.01847 -4.31497 .63956
C -2.33866 -3.54418 .39764
C -1.14000 -3.71233 1.22474
C -.94122 -2.91112 2.41410
C -4.30275 -2.15896 -.14362
C -3.40786 -2.65540 .82861
C -3.27777 -1.93660 2.08032
C -2.04923 -2.06476 2.86947
C -1.77345 -1.06349 3.80161
C -3.97168 -2.24566 -1.54687
C -2.94580 -3.04856 -1.94411
C -2.25049 -3.85099 -.97231
C -.99437 -4.19146 -1.58300
C .07241 -4.52471 -.79371
C -4.75021 1.19674 -1.21086
C -4.90592 -.17025 -1.22870
C -4.13748 -.95317 -2.15780
