96 

C -2.40877 -.92111 -3.46096
C -3.04835 -1.86064 -2.63125
C -4.21518 -1.41775 -1.95767
C -4.66495 -2.03989 -.71762
C -3.91141 -3.04887 -.16194
C -1.02616 -1.05569 -3.80698
C -.24860 -2.08754 -3.31673
C -.85405 -3.02532 -2.36709
C -2.23932 -2.92537 -2.05498
C -2.70575 -3.51902 -.83650
C 1.41241 -3.67871 -1.67226
C .02576 -3.70304 -1.43690
C 3.10488 -.37805 -3.31447
C 1.76885 -.60751 -3.64669
C 1.20365 -1.91679 -3.37981
C 1.99698 -2.86482 -2.72985
C -4.97085 -.99259 1.48519
C -4.12116 -2.01573 2.05406
C -5.24897 -1.01291 .12016
C -3.65515 -3.05767 1.26195
C -2.32662 -3.55355 1.45480
C -3.20476 -1.38017 2.96243
C -1.90912 -1.84562 3.15013
C -1.46669 -3.01553 2.40546
C -.40501 -3.96453 -.10425
C -1.79535 -3.91746 .14721
C 2.34010 -3.79410 -.62439
C 1.90839 -3.71371 .73246
C .50931 -3.80790 .99961
C -.03259 -3.28437 2.25959
C .81954 -2.62214 3.11697
C -4.99373 1.42434 -.00613
C -4.69118 1.44678 1.41694
C -5.21014 .22058 -.63893
C -4.61374 .26294 2.12059
C -3.47739 .03700 2.97944
C -2.44227 .97316 3.11787
C -.92242 -.90158 3.63443
C .39355 -1.40356 3.79335
C -2.45894 3.93486 .17814
C -4.19023 2.45277 -.64497
C -3.59361 3.21156 .41708
C -1.12894 .49988 3.52433
C -2.57739 2.25767 2.45911
C -3.71387 2.47536 1.65245
C -1.42377 3.99090 1.17479
C .02804 1.38697 3.44420
C -1.38964 3.06731 2.22466
C -1.83926 3.89038 -1.11491
C -2.22905 2.95089 -2.06757
C -3.47984 2.21854 -1.83627
C -3.69833 .93693 -2.50254
C -4.54348 -.03708 -1.90389
C -2.70785 .46365 -3.37193
C -.45451 4.23863 -.92404
C 1.86753 3.82504 -1.25784
C .55291 3.74547 -1.76233
C .21298 2.73207 -2.76025
C -1.17821 2.39112 -2.93451
C -1.48160 1.20480 -3.61685
C 1.03217 4.09038 1.02679
C -.21997 4.35669 .48090
C 2.11788 4.06252 .10993
C 1.48672 -.56180 3.89668
C 1.32868 .84663 3.69671
C -.08514 2.65186 2.74472
C 2.48601 1.54921 3.27169
C 2.37093 2.73905 2.56186
C 1.09764 3.28263 2.23741
C 2.92410 2.98574 -1.78123
C 2.62753 1.99470 -2.73943
C 1.24720 1.82656 -3.20922
C .87747 .54821 -3.74299
C -.47591 .28228 -3.95657
C 3.52724 .91972 -2.82112
C 3.87269 2.76058 -.75892
C 4.60736 1.54951 -.69664
C 4.53772 .71601 -1.83408
C 4.27360 1.58361 1.77171
C 3.51478 2.82003 1.65732
C 3.37427 3.42253 .43987
C 5.02712 -.44928 .67960
C 4.84273 .93936 .61441
C 2.65894 -1.27749 3.38359
C 4.44969 -1.22014 1.75439
C 3.74346 -.58303 2.79485
C 3.69666 .84339 2.80657
C 3.58590 -3.18958 -1.07083
C 4.39677 -2.54267 -.16497
C 4.00169 -2.47939 1.22932
C 2.80201 -3.06305 1.68517
C 2.22486 -2.50680 2.85720
C 4.79179 -.70987 -1.74699
C 3.91833 -1.37415 -2.69400
C 3.35213 -2.60528 -2.37616
C 5.02515 -1.28095 -.51086
