96 

C 2.39545 3.45939 1.77669
C 2.93506 2.24337 2.23563
C 4.02913 1.63106 1.46457
C 4.33464 .23852 1.65668
C 4.88759 -.50702 .59494
C 3.59629 -.49246 2.66051
C 1.07231 3.84481 2.08334
C .21844 3.01796 2.84232
C .74260 1.77342 3.33814
C 2.11009 1.43795 3.08654
C 2.52744 .08210 3.32891
C -1.54834 .94220 3.64205
C -.19975 .69401 3.70760
C -2.08755 2.18963 3.15696
C -1.22373 3.20987 2.68600
C -1.70922 4.02550 1.64406
C 3.34023 -1.92940 2.52781
C 3.73206 -2.62143 1.34655
C 4.49390 -1.90651 .37847
C 2.89766 -3.65597 .88513
C 2.10570 -2.20936 3.13107
C 1.24011 -3.22595 2.65524
C 1.72118 -4.03397 1.60521
C -.54495 -4.58269 .89702
C .79705 -4.58860 .63876
C .22077 -.71761 3.70082
C 1.56867 -.96553 3.62799
C -2.50803 -.10309 3.33784
C -2.09132 -1.45710 3.08253
C -.72307 -1.79431 3.32578
C -.20134 -3.03537 2.81819
C -1.05817 -3.85706 2.05610
C 2.61221 -3.77804 -.52556
C 3.16913 -2.90305 -1.44784
C 4.27298 -2.10202 -.99391
C 4.66392 -.88821 -1.68555
C 3.93212 -.47288 -2.77233
C 1.26737 -4.27069 -.67805
C .39728 -3.76266 -1.65211
C .91286 -2.74266 -2.57001
C 2.31475 -2.39549 -2.51937
C 2.74467 -1.22077 -3.16984
C -1.45643 -2.06838 -3.07112
C -.01420 -1.85123 -3.20132
C .44163 -.55976 -3.63539
C 1.80321 -.28990 -3.64678
C -2.31623 -1.02985 -3.45158
C -1.96693 -3.09184 -2.18901
C -1.02850 -3.89378 -1.41997
C -3.29261 -2.97220 -1.71664
C -1.46433 -4.41981 -.18472
C 4.83569 1.43382 -.86854
C 4.12594 1.88318 -2.06538
C 5.08525 .07868 -.68451
C 3.64775 .94222 -2.96263
C 2.69202 3.94939 .43858
C 3.61015 3.30573 -.32940
C 3.29198 2.98906 -1.70549
C 2.30926 1.05949 -3.45133
C 1.45080 2.09476 -3.05884
C 1.96437 3.11179 -2.17118
C -.39755 3.77777 -1.61942
C 1.02894 3.90761 -1.39213
C 1.46959 4.42467 -.15479
C -1.26395 4.27874 -.63857
C -.78854 4.58724 .67853
C .55468 4.57970 .93150
C -2.31786 2.41712 -2.49026
C -1.81049 .32090 -3.63760
C -.44888 .59048 -3.62864
C .00834 1.87832 -3.18508
C -.91625 2.76464 -2.54304
C -2.74999 1.24799 -3.14906
C 4.39581 2.22427 .23227
C -3.93613 .49737 -2.75314
C -4.66417 .90432 -1.66023
C -4.27106 2.11272 -.96039
C -3.16845 2.91669 -1.41177
C -2.60816 3.78508 -.48505
C -4.83278 -1.42339 -.86107
C -4.12787 -1.86366 -2.06433
C -3.65283 -.91603 -2.95612
C -5.08194 -.06995 -.66517
C -2.68428 -3.94918 .41714
C -4.38842 -2.22209 .23183
C -3.60546 -3.29956 -.34185
C -3.57959 .47621 2.67847
C -4.87989 .50592 .61849
C -4.32191 -.24744 1.67209
C -4.01684 -1.63856 1.46722
C -2.91967 -2.25672 2.22858
C -2.38246 -3.46967 1.75752
C -2.88840 3.65278 .92553
C -4.48717 1.90709 .41147
C -3.72121 2.61492 1.38207
C -3.32427 1.91415 2.55644
