96 

C -4.30277 -1.96652 -.32269
C -3.56337 -2.54412 -1.36552
C -3.44354 -1.78765 -2.56121
C -2.30541 -1.97534 -3.43327
C -1.41332 -2.98104 -3.18309
C -2.18710 -3.75153 .36745
C -2.53879 -3.53570 -1.03853
C -1.58304 -3.83547 -2.02091
C -.95303 -4.31344 .66522
C .00694 -4.64041 -.35267
C -.27192 -4.31856 -1.67773
C -2.85086 -2.97308 1.42327
C -2.09385 -2.55671 2.60001
C -3.98777 -2.24257 1.07749
C -2.54071 -1.44269 3.32143
C -.45126 -.40880 -3.94611
C .50020 -1.50003 -3.70605
C -1.81997 -.68244 -3.83631
C -.00231 -2.74800 -3.36812
C .70632 -3.61793 -2.45091
C 1.96130 -3.26878 -1.91706
C 2.62038 -2.06477 -2.40802
C 1.88356 -1.19920 -3.32889
C 2.31076 .10728 -3.50341
C 4.15620 -2.19162 -.47922
C 3.74192 -1.53941 -1.69266
C 3.39295 -3.21102 .08511
C 2.29979 -3.79138 -.61729
C 1.30351 -4.41566 .16560
C -2.72398 .29193 -3.33201
C 1.37498 1.19560 -3.73702
C -.03708 .95809 -3.79661
C -.93500 1.95439 -3.30502
C -2.30576 1.57915 -3.00315
C -.38136 3.17099 -2.71149
C -1.19921 3.91082 -1.84389
C 1.90715 2.34815 -3.18071
C 1.05100 3.34400 -2.59892
C 1.57940 4.08517 -1.52153
C .71821 4.58078 -.50549
C -.64669 4.56399 -.69550
C 3.20707 2.02102 -2.60521
C 4.44167 1.89973 -.52536
C 3.64294 2.64937 -1.41465
C 2.80915 3.66516 -.85889
C 4.14554 -.15077 -1.86712
C 3.43559 .63954 -2.80298
C 4.77783 .53795 -.80259
C -2.53062 3.47156 -1.48419
C -3.08606 2.30586 -1.99663
C -4.10372 1.61231 -1.20258
C -2.75582 3.86924 -.12123
C -3.62440 3.16047 .65965
C -4.39983 2.09921 .08154
C -1.50739 4.33214 .43090
C -4.39042 .20824 -1.47525
C -3.75491 -.40536 -2.56730
C -4.75812 1.21232 1.17220
C -4.95873 -.12771 .92929
C -4.80636 -.63958 -.41592
C -4.01235 1.63801 2.35187
C -4.44367 -1.12382 1.85041
C -3.72572 -.72418 2.96700
C -3.48013 .69018 3.20522
C -3.22605 2.78427 2.00085
C -1.88261 2.92603 2.41022
C -.99861 3.76846 1.61656
C 1.25730 4.20362 .77445
C .44646 3.65316 1.77101
C 2.42946 2.29114 2.52412
C 1.02272 2.62016 2.64700
C .14257 1.71420 3.31917
C -1.30838 1.90156 3.25563
C -2.12937 .84098 3.66267
C 2.90736 1.12321 3.14636
C 2.00613 .18040 3.68383
C .64199 .43039 3.74458
C 4.71011 .82859 1.52897
C 4.29150 2.05808 .90603
C 3.22438 2.81634 1.41971
C 2.59714 3.72479 .52871
C 4.06400 .39195 2.66548
C 4.19528 -1.94204 1.86242
C 4.76105 -1.44748 .61741
C 5.03664 -.11382 .46816
C 3.80572 -1.02756 2.85524
C 1.15180 -4.04165 1.57212
C 2.12107 -3.22079 2.22531
C 3.34494 -3.02074 1.54187
C -1.59110 -.49357 3.83030
C -.23646 -.73120 3.79719
C .23134 -2.03491 3.35232
C -.69786 -2.91623 2.73299
C -.20372 -3.93002 1.85579
C 2.53136 -1.16025 3.46279
C 1.65971 -2.22806 3.14994
