96 

C 2.22959 -3.81567 .59539
C 3.25806 -3.07895 1.15124
C -.14318 -4.48665 -.86135
C 1.00494 -4.22753 -1.56069
C 2.24565 -3.98409 -.84524
C -2.28050 -3.88974 -.21358
C 3.04103 -3.17048 -1.65048
C 4.04405 -2.31868 -1.07580
C 4.21155 -2.35899 .33844
C 4.34110 -1.12503 -1.74296
C 2.21712 -2.70618 -2.78260
C 2.32759 -1.41078 -3.26679
C 3.49881 -.66287 -2.85081
C 2.32300 1.45907 -3.25491
C 3.49664 .71166 -2.84514
C 2.20856 2.74987 -2.76050
C -3.87869 -2.59976 1.01835
C -3.40642 -3.06260 -.23924
C -1.39934 -4.02163 -1.35805
C -3.66471 -2.27089 -1.44083
C -2.66430 -2.26289 -2.50873
C -1.47835 -3.12230 -2.42759
C -.23548 -2.72777 -3.08376
C .95080 -3.36298 -2.69726
C 1.12642 .75105 -3.68158
C -1.30735 -.67860 -3.85199
C -.11611 -1.41208 -3.68440
C 1.12876 -.70332 -3.68770
C 4.80630 .01885 -1.03366
C 4.89690 .01281 .38702
C 4.61666 -1.21551 1.05799
C 4.61345 1.23473 1.06792
C 4.33774 1.16720 -1.73364
C 3.03119 3.20720 -1.62460
C 4.03730 2.35402 -1.05690
C 4.20488 2.38279 .35778
C 3.91683 1.23275 2.35903
C 3.54354 -.00064 2.98767
C 3.92009 -1.22731 2.34903
C 2.38364 -.00622 3.76221
C 3.07126 2.34540 2.40667
C -.16806 4.37191 .63206
C .92829 3.90322 1.34436
C .68562 3.05637 2.52429
C 1.79563 2.29501 3.05847
C 1.53632 1.15854 3.83383
C 3.24902 3.09225 1.17653
C 2.23352 4.01088 -.81268
C 2.21840 3.82954 .62648
C 1.53982 -1.17443 3.82411
C 1.80214 -2.30347 3.03954
C 3.07788 -2.34314 2.38749
C .69416 -3.06396 2.49926
C .93954 -3.89965 1.31220
C -.15519 -4.36544 .59571
C .20465 -.73841 4.04818
C -3.24207 1.38080 2.92014
C -2.15471 .71285 3.49023
C -2.15290 -.73721 3.48440
C -.88466 -1.46100 3.59585
C -.64494 -2.68859 2.84585
C -3.23862 -1.40357 2.90897
C -1.75789 -3.24504 2.09950
C -1.49639 -4.03910 .97081
C -1.50808 4.03800 1.00458
C -1.76683 3.23332 2.12631
C -.65225 2.67388 2.86778
C -.88852 1.43933 3.60755
C .20251 .71634 4.05418
C -3.03076 2.60807 2.17034
C -4.33091 .68485 2.32177
C -4.32920 -.70551 2.31623
C -3.02361 -2.62385 2.14879
C -5.04467 -.72942 -.02707
C -4.71754 -1.42394 1.11797
C -4.35250 .00849 -2.12128
C -4.52919 -1.16957 -1.31590
C -3.39476 .01417 -3.11457
C -4.72155 1.41225 1.12967
C -4.53283 1.17927 -1.30632
C -5.04693 .72662 -.02088
C -2.29198 3.89640 -.18098
C -2.58838 1.17682 -3.32622
C -2.67149 2.28846 -2.49005
C -3.67180 2.28423 -1.42196
C -3.41553 3.06636 -.21362
C -3.88616 2.59133 1.04012
C -.24425 2.76593 -3.06136
C .94009 3.40174 -2.66974
C .99191 4.25607 -1.52598
C -1.48820 3.15080 -2.40172
C -1.41156 4.04085 -1.32447
C -.15653 4.50512 -.82420
C -2.58466 -1.14405 -3.33565
C -1.30974 .71970 -3.84638
C -.12078 1.45563 -3.67289
