96 

C 4.90113 .37915 1.35615
C 4.90663 1.38207 .29449
C 4.90861 -.96162 1.03750
C 4.90057 .98795 -1.02604
C 4.04209 1.66381 -1.95994
C 2.60499 2.79049 2.60689
C 4.04273 .84911 2.40878
C 3.72176 2.21763 2.08223
C .53655 3.74527 2.43175
C 1.82813 3.70024 1.80852
C -.54778 4.13043 1.69859
C 1.70305 1.95880 -3.46284
C 1.84704 2.74522 -2.32006
C 3.08920 2.61642 -1.54726
C 3.12754 3.05801 -.16842
C 4.07081 2.47414 .70419
C .64341 3.30243 -1.72596
C .75252 3.88669 -.40015
C 1.95804 3.70064 .40666
C -.42584 4.23304 .25854
C 1.70287 2.00057 3.41656
C 1.84867 .61784 3.52644
C 3.09121 .01427 3.02801
C 3.13111 -1.40074 2.72138
C 4.07444 -1.86350 1.77904
C .64620 -.17677 3.71283
C .75703 -1.61707 3.55627
C 1.96283 -2.22154 2.99118
C -.42036 -2.36219 3.52789
C .41541 2.61608 3.33160
C -1.96773 2.43376 2.80746
C -.76200 1.87544 3.41834
C -.65128 .45192 3.68785
C -4.07903 1.98150 1.62695
C -3.13591 1.59412 2.60279
C -3.09613 .20753 3.01971
C -1.85373 -.35493 3.56442
C -1.70793 -1.74194 3.56394
C -1.83886 3.58936 2.01359
C -.54142 -3.55824 2.71914
C .54291 -3.99952 2.01834
C 1.83398 -3.43574 2.29023
C 2.61033 -3.67139 1.10265
C 3.72600 -2.92913 .86812
C -3.72642 -2.06319 2.24986
C -2.60986 -2.59293 2.81846
C -1.83284 -3.56220 2.09385
C -4.04754 -.67334 2.46779
C 4.90798 -.43285 -1.36358
C 4.90248 -1.37943 -.36187
C 4.04541 -2.52703 -.48055
C 1.70784 -3.97849 .01428
C .64882 -3.14730 -2.01874
C 1.85198 -3.38175 -1.23811
C 3.09336 -2.64675 -1.51246
C -.42029 -1.89541 -3.81822
C .75785 -2.29109 -3.18770
C 1.96233 -1.49780 -3.42937
C 3.13130 -1.67340 -2.58449
C 4.07327 -.62478 -2.51485
C -4.07536 -2.42689 .89595
C -3.13196 -3.07696 .07190
C -1.96258 -3.67222 .69612
C -.75709 -3.92055 -.09350
C .42106 -4.21427 .59058
C -3.09351 -2.74454 -1.33747
C -1.85127 -2.93311 -2.09756
C -.64787 -3.44193 -1.46114
C -1.70702 -2.23869 -3.29849
C 3.72298 .69659 -2.98210
C 2.60664 .86360 -3.74137
C 1.83150 -.28369 -4.13023
C -3.72698 -.94302 -2.91869
C -2.61048 -1.16875 -3.66227
C -1.83528 -.05537 -4.13964
C -.54340 -.59704 -4.44945
C .53969 .23206 -4.48182
C -4.91108 -1.37036 .40150
C -4.90497 -1.08072 -.94592
C -4.04634 -1.82739 -1.82391
C -4.90702 1.33130 -.46942
C -4.91309 1.02419 .95832
C -4.90574 -.28741 1.38128
C -4.91237 .30928 -1.39391
C -2.61523 3.73135 .81127
C -4.05018 2.46638 -.67750
C -3.73076 2.97273 .63553
C .41640 1.57590 -3.95428
C -1.96642 1.21001 -3.53622
C -.76201 2.01986 -3.35718
C -.65331 2.96503 -2.25897
C -4.07742 .41081 -2.55647
C -3.13562 1.45099 -2.70794
C -3.09799 2.50534 -1.71546
C -1.85670 3.25981 -1.49939
C -1.71268 3.95274 -.29766
