96 

C -.92827 .94197 3.83041
C .16697 .08847 3.71821
C 2.54721 -.28324 3.06651
C 2.31253 -1.65581 3.21972
C 3.07088 -2.64873 2.52097
C 4.08312 -2.24539 1.66728
C -.84129 2.30074 3.49025
C .34546 2.83163 2.94832
C 1.52758 2.00545 2.91406
C 1.44509 .64022 3.34482
C 2.54000 3.59188 1.31575
C 2.67521 2.43557 2.09748
C 3.71287 1.49335 1.73576
C 3.66987 .13330 2.25640
C 4.42703 -.85943 1.59677
C 1.26744 4.26813 1.19188
C .19488 3.94660 2.02082
C -1.09982 4.27761 1.53417
C 2.27105 -4.29318 .88586
C 3.21366 -3.74345 -.07520
C 2.16938 -3.72492 2.14035
C 4.13468 -2.79414 .31380
C 4.88489 .62891 -.26366
C 4.88548 -.62902 .24253
C 4.46668 -1.73592 -.58746
C 4.47007 1.73604 .56800
C -1.30177 -4.44516 -.14506
C -.21583 -4.46650 .74839
C 1.06310 -4.62490 .16803
C 1.25987 -4.26551 -1.19894
C .18465 -3.94304 -2.02412
C -1.10863 -4.27266 -1.53277
C -2.18136 -2.71816 -3.05613
C -2.30242 -3.64985 -2.06179
C 4.42161 .85973 -1.61613
C 3.66141 -.13256 -2.27286
C 3.70542 -1.49276 -1.75231
C 2.66575 -2.43424 -2.10992
C 2.53264 -3.59048 -1.32758
C 1.43257 -.63771 -3.35297
C 1.51561 -2.00315 -2.92220
C .33284 -2.82825 -2.95211
C -.85533 -2.29614 -3.48961
C -.33535 -3.74291 2.01558
C .85565 -3.40546 2.66968
C -2.57210 -3.84766 .22477
C -2.70088 -3.13171 1.43694
C -1.52528 -2.96650 2.30477
C -3.74302 -2.19568 1.49549
C -4.46524 -1.80308 .33499
C -4.08445 -2.28489 -.93688
C -3.21591 -3.40443 -.95334
C -3.68307 -1.06980 2.40170
C -2.53570 -.84925 3.17835
C -1.42381 -1.79743 3.12113
C -.11775 -1.33660 3.54580
C .96609 -2.17399 3.37260
C -2.28871 .47842 3.58500
C -4.90215 .44134 -.52178
C -4.90062 -.43225 .53670
C -4.40808 .01180 1.83130
C -4.01817 1.34768 2.06355
C -3.03971 1.55860 3.07286
C -3.05164 -1.55174 -3.06467
C -4.02631 -1.33954 -2.05173
C -4.41450 -.00329 -1.81806
C -4.46521 1.81185 -.32174
C -4.07958 2.29319 .94879
C -3.20995 3.41183 .96217
C -2.29225 3.65594 2.06738
C -2.16841 2.72407 3.06117
C -3.74665 2.20369 -1.48473
C -1.53102 2.97202 -2.30183
C -2.70353 3.13868 -1.42987
C -2.57004 3.85465 -.21818
C .84860 3.40886 -2.67551
C -.33963 3.74738 -2.01679
C -2.30158 -.47229 -3.57923
C .95563 2.17736 -3.37917
C -.12934 1.34063 -3.54823
C -1.43335 1.80273 -3.11844
C -2.54610 .85565 -3.17146
C -3.69072 1.07761 -2.39097
C 4.07851 2.24597 -1.68515
C 3.06352 2.65022 -2.53499
C 2.30203 1.65784 -3.23106
C 2.53627 .28488 -3.07861
C .15377 -.08478 -3.72137
C -.94245 -.93734 -3.82923
C 2.27100 4.29520 -.89656
C 3.21664 3.74450 .06091
C 4.13553 2.79460 -.33179
C 2.16432 3.72711 -2.15078
C -1.29786 4.45075 .14725
C -.21504 4.47097 -.75000
C 1.06610 4.62803 -.17425
