96 

C -4.20920 1.85349 1.02754
C -4.42141 -.36003 1.92528
C -4.62678 .51773 .83907
C -4.25050 -1.78381 1.71472
C -4.35719 -2.29168 .44895
C -1.24442 -4.28295 .22410
C -3.43338 -3.32084 .01870
C -2.38042 -3.74993 .85928
C -2.21524 -3.15355 2.17865
C -.87410 -3.02855 2.74221
C -3.21773 -2.26525 2.61414
C -.65694 -2.03720 3.70018
C -4.63179 -1.41362 -.67333
C -4.68415 -.01313 -.52348
C -4.25640 .82162 -1.63922
C -4.02052 -2.01720 -1.81456
C -3.56396 -1.22677 -2.84370
C -3.76800 .18406 -2.79693
C -3.22529 -3.15235 -1.38108
C -1.97098 -3.42975 -1.96411
C -1.06561 -4.16242 -1.17103
C -3.83182 2.21203 -1.39789
C -3.85971 2.70548 -.09297
C -2.69841 .76848 -3.59362
C -2.28744 2.04503 -3.36915
C -2.89790 2.82713 -2.30834
C -1.71506 -.25557 -3.87895
C 1.96801 -.80015 -3.35585
C 2.81258 -1.82684 -2.92547
C .54751 -1.09723 -3.54877
C -.33607 .00002 -3.83609
C .10468 1.37942 -3.61514
C -.88211 2.36414 -3.43674
C -1.42721 -2.51922 -2.98225
C -2.25625 -1.49444 -3.44054
C .34975 -4.14086 -1.44468
C .88001 -3.29996 -2.43877
C .00603 -2.35512 -3.12778
C 2.25566 -3.02900 -2.35477
C -1.93379 3.74529 -1.86961
C -1.90151 4.16533 -.50396
C -2.88448 3.65058 .37145
C -.65184 4.50526 .05190
C -.67018 3.46576 -2.57580
C 1.67132 2.81308 -2.32023
C .57536 3.68605 -1.98874
C .58072 4.39230 -.72014
C 3.88130 1.93511 -1.71221
C 2.87606 2.87922 -1.49728
C 2.40506 .57292 -3.15574
C 1.42846 1.65064 -3.12700
C 3.65667 .79996 -2.57425
C -.35190 4.20311 1.40317
C -1.23996 3.44762 2.20898
C -2.55558 3.31911 1.72071
C -3.40090 2.21996 2.12339
C -2.95617 1.26873 3.06660
C -3.59469 .01314 3.02932
C -2.91723 -1.18219 3.49747
C -1.65755 -1.07170 4.03106
C -.69168 2.43550 3.10899
C -1.58626 1.37736 3.58707
C -1.01726 .22682 4.12760
C 1.05342 4.03437 1.50468
C 2.95651 2.71060 2.12622
C 1.60390 3.11670 2.39194
C .73184 2.25532 3.17229
C 1.28425 .98416 3.61680
C .39344 -.00012 4.06945
C 2.82569 3.52421 -.20572
C 1.62149 4.20969 .17182
C 3.60181 3.01409 .84379
C 4.55193 1.09584 1.72040
C 3.46042 1.50222 2.59281
C 2.58516 .54464 3.20905
C 4.79700 -.23876 1.51182
C 3.92085 -1.22729 2.12750
C 2.82318 -.85493 2.95545
C 5.14877 .14958 -.88599
C 4.80228 1.54338 -.67839
C 4.60243 2.02540 .61223
C 5.17637 -.72284 .20004
C 4.16474 -2.50064 -1.14977
C 4.05633 -1.57155 -2.25548
C 4.49623 -.27120 -2.11083
C 4.62015 -2.05344 .07362
C 1.03632 -4.28631 -.20718
C 2.33285 -3.78377 -.02891
C 3.01521 -3.37991 -1.20666
C .62309 -1.37701 3.81349
C 1.75517 -1.80135 3.10409
C 1.62610 -2.93299 2.20584
C .29920 -3.53116 2.01273
C .06649 -4.24828 .84482
C 3.82790 -2.33371 1.27395
C 2.65246 -3.14683 1.23428
