96 

C -4.66109 .05834 1.57129
C -4.90028 -.52666 .27880
C -4.87333 .31741 -.85291
C -4.52821 -1.88459 .10306
C -3.77243 -2.57319 1.12273
C -3.37258 -1.93741 2.28584
C -3.95746 -.64369 2.55149
C -4.10350 -2.38147 -1.15365
C -3.93134 -1.49869 -2.24991
C -4.34330 -.15296 -2.08528
C -2.83946 -1.74012 -3.14757
C -3.13895 -3.45543 -.90890
C -.90575 -4.30510 -1.30704
C -2.07411 -3.72368 -1.82903
C -1.93605 -2.87471 -2.96002
C -1.48846 -1.30827 3.73437
C -2.04892 -2.25726 2.86017
C -1.16026 -3.18953 2.21203
C -1.64290 -3.88954 1.01207
C -2.92039 -3.54209 .47067
C -.72674 -4.43664 .11890
C -2.08865 -.67168 -3.65546
C -2.39277 .68227 -3.34500
C -3.59581 .92272 -2.68061
C -1.29196 1.64583 -3.25726
C -1.54921 2.91048 -2.59268
C -.46364 3.73650 -2.31123
C -.71714 -1.10071 -3.78637
C 1.64210 -.80649 -3.22082
C .34561 -.23922 -3.62346
C .05820 1.19779 -3.45009
C 3.88874 -.41341 -2.33339
C 2.73162 .09736 -2.94428
C 2.50119 1.53484 -2.89639
C 1.15587 2.06916 -3.12550
C .86306 3.35196 -2.63705
C .37487 -4.04117 -1.87948
C .52902 -3.00559 -2.81744
C -.65165 -2.48392 -3.39120
C 2.83270 -2.59162 -1.94397
C 1.72317 -2.16578 -2.78253
C 3.91578 -1.73327 -1.79064
C -2.76108 3.09410 -1.78718
C -3.76511 2.09369 -1.84554
C -.40663 4.52624 -1.08422
C -1.45411 4.47480 -.20476
C -2.69612 3.85837 -.60885
C 2.95943 3.46925 -1.42539
C 1.73206 3.99093 -1.67288
C .92971 4.47861 -.58015
C 3.41669 2.32525 -2.17931
C -3.34310 3.39393 .58407
C -4.24823 2.32312 .54618
C -4.52746 1.73617 -.72684
C -4.33853 1.48989 1.70430
C -2.40429 3.52986 1.67408
C -2.35016 2.58873 2.69171
C -3.44016 1.64880 2.76426
C -2.06094 .02044 3.91784
C -3.25443 .33851 3.35702
C .06974 3.77447 1.61576
C -1.20486 4.14823 1.17224
C 3.72527 1.62369 2.11140
C 2.60167 2.45889 2.08463
C 1.42042 2.06343 2.85467
C .16865 2.76068 2.66989
C -1.04045 2.21658 3.22443
C 1.42299 .77804 3.48261
C .21938 .26111 3.98466
C -.96879 .98760 3.92966
C 1.19226 4.02660 .73100
C 3.41746 3.34172 -.05857
C 2.47864 3.40338 .99330
C 4.57741 -.55252 1.97462
C 3.67257 .29940 2.69507
C 2.49325 -.18066 3.24953
C 4.24725 -1.88682 1.80004
C 3.06107 -2.40824 2.41249
C 2.18120 -1.60025 3.12498
C 4.46543 2.36582 -.08017
C 5.14904 .20951 .88620
C 4.68079 1.57802 1.03434
C 4.37208 -2.49549 .49187
C 4.74504 -1.71858 -.58733
C 5.20862 -.36255 -.38421
C 4.76299 .40994 -1.52941
C 4.48252 1.74936 -1.40344
C 1.36210 -4.22207 -.83835
C 3.28761 -3.44076 .34118
C 2.60696 -3.58248 -.89137
C -.09624 -1.16786 3.86862
C .79324 -2.05251 3.26621
C .25876 -3.11927 2.46129
C 2.54001 -3.45456 1.55292
C 1.18088 -3.80961 1.56572
C .68326 -4.40268 .38974
