96 

C 2.97308 1.45306 -2.73666
C 3.89735 .42120 -2.57953
C .79525 3.29915 -2.48835
C .56407 2.09507 -3.20158
C 1.66547 1.14428 -3.32738
C 1.36277 -.20759 -3.63035
C .02324 -.55500 -3.93291
C -.23315 3.93342 -1.79360
C -1.56882 3.43801 -1.81296
C -1.88023 2.33892 -2.66237
C -.79351 1.68400 -3.37348
C -1.01397 .37038 -3.87164
C -4.02179 2.05669 -1.46666
C -3.16386 1.63282 -2.48074
C -3.58232 3.01882 -.48847
C -2.39176 3.71933 -.64699
C -1.75989 4.17891 .55219
C 2.24394 -1.28775 -3.22778
C 3.53519 -.95309 -2.82330
C 4.29912 -1.78807 -1.93572
C 1.66572 -2.54080 -2.75928
C 2.39058 -3.29983 -1.84618
C 3.70227 -2.92665 -1.41390
C -.51874 -1.86166 -3.58364
C .21394 -2.74540 -2.81586
C -1.89590 -3.39186 -1.63127
C -.48121 -3.49291 -1.76225
C .29505 -3.92200 -.62114
C 1.70246 -3.88975 -.70513
C -2.48829 -3.74518 -.37712
C -1.93240 -1.71259 -3.41913
C -3.89163 -1.97548 -2.05896
C -2.65060 -2.49749 -2.49647
C -3.32187 .25640 -2.95332
C -2.24753 -.34643 -3.61765
C -4.23412 -.61658 -2.30432
C 5.19687 -1.21276 .27575
C 4.49224 -2.35284 .82783
C 5.10626 -.93453 -1.08782
C 3.78940 -3.20397 .00477
C 1.94308 -1.68097 3.45791
C 3.90265 -1.95224 2.09954
C 2.66267 -2.47266 2.54211
C 2.50202 -3.73851 .43375
C -1.68897 -3.88611 .76340
C -.28139 -3.91726 .68005
C .49452 -3.47796 1.81728
C 1.90925 -3.37589 1.68482
C -.20189 -2.72239 2.86427
C .52947 -1.83083 3.62378
C 4.91080 1.46384 -.61025
C 4.94815 1.16946 .80687
C 4.90403 .42978 -1.52917
C 5.06988 -.13595 1.23370
C 4.24268 -.59053 2.33276
C 3.32873 .28633 2.97370
C 2.25564 -.31246 3.64373
C 2.04610 3.52426 -1.77256
C 3.13021 2.62869 -1.88879
C 4.03103 2.58819 -.80641
C 3.58495 3.02824 .48507
C 2.39328 3.72831 .63762
C 1.76084 4.17710 -.56534
C -.35474 4.52700 .57440
C .35508 4.52291 -.59055
C 3.16823 1.65818 2.48886
C 4.02573 2.07490 1.47154
C 1.02081 .40451 3.89121
C .79802 1.71337 3.38133
C 1.88351 2.36371 2.66430
C 1.57065 3.45522 1.80582
C .23435 3.94845 1.78233
C -.01486 -.52189 3.96101
C -1.35506 -.17870 3.65560
C -1.66001 1.17016 3.34070
C -.56011 2.12124 3.20629
C -.79308 3.31880 2.48253
C -3.89055 .43769 2.59926
C -2.96801 1.47228 2.74714
C -3.69027 -2.91969 1.46319
C -2.37824 -3.28764 1.89933
C -1.65427 -2.51992 2.80573
C -4.28905 -1.77748 1.97497
C -3.52624 -.93384 2.85526
C -2.23460 -1.26340 3.26271
C -5.18734 -1.22253 -.24174
C -4.48063 -2.36611 -.78367
C -3.77657 -3.20897 .04693
C -5.09726 -.93249 1.11941
C -4.90543 1.46177 .62056
C -4.94261 1.15530 -.79398
C -5.06221 -.15398 -1.20921
C -4.89707 .43582 1.54865
C -2.04417 3.53612 1.76485
C -3.12688 2.64011 1.88876
C -4.02757 2.58909 .80675
