96 

C -.18382 4.14887 -1.60785
C .87095 4.26369 -.70005
C 2.16255 3.92033 -1.18963
C -.03606 3.39334 -2.81325
C 1.16877 2.77614 -3.13230
C 2.30999 3.20071 -2.39341
C .57549 4.13280 .72265
C 1.66578 3.82782 1.58346
C -1.54249 4.02496 -1.16321
C -1.85567 3.82536 .17975
C -.75377 3.82975 1.16114
C -.92962 3.13373 2.41739
C -2.19523 2.53488 2.70350
C -2.25779 3.33282 -2.21823
C -3.40724 2.64937 -1.93987
C -3.90262 2.61455 -.57694
C -3.12118 3.14409 .47811
C -3.29143 2.55403 1.74322
C 2.33392 .70140 -3.68792
C 1.12828 1.43184 -3.70703
C -1.37487 1.43774 -3.54449
C -1.29705 2.77192 -3.12375
C .19285 2.66447 3.16274
C 1.47935 3.11326 2.77267
C 2.67683 2.31218 3.00525
C .09577 1.41793 3.91907
C 1.28823 .68675 4.18171
C 2.58318 1.13201 3.68159
C -3.48914 .66291 3.03802
C -2.30226 1.38221 3.47501
C -1.13053 .70453 3.95180
C -3.48703 -.70249 3.03535
C -2.29792 -1.41951 3.46968
C -1.12831 -.73977 3.94900
C -4.06724 -1.42932 1.91874
C -4.61943 -1.42956 -.42459
C -4.64536 -.75171 .81214
C -4.07143 1.39189 1.92399
C -4.62385 1.39899 -.41922
C -4.64763 .71654 .81489
C 2.68370 -2.33194 2.99739
C 3.32560 -.00925 3.22492
C 2.58671 -1.15429 3.67763
C .10026 -1.44899 3.91363
C 1.29051 -.71496 4.17903
C 1.48867 -3.13591 2.76179
C .20084 -2.69242 3.15278
C 3.53560 -2.41876 1.84567
C 4.10501 -1.26682 1.26041
C 3.99437 -.00612 1.98235
C 4.10133 1.25725 1.26449
C 3.52844 2.40535 1.85360
C 2.98655 3.47050 1.05896
C 4.31240 1.25920 -.17681
C 3.95132 2.41576 -.89923
C 3.22005 3.49053 -.28646
C 2.99697 -3.48316 1.04759
C 4.31612 -1.26363 -.18083
C 4.40408 -.00095 -.90186
C 3.23047 -3.49819 -.29784
C 3.95856 -2.41904 -.90689
C -2.18771 -2.56905 2.69390
C -.92030 -3.16270 2.40570
C .58782 -4.15158 .70837
C 1.67728 -3.84605 1.57036
C 3.46848 2.33618 -2.25124
C 3.49647 1.14312 -2.91193
C 4.09011 .00076 -2.27916
C 2.31959 -3.20392 -2.40369
C 3.47556 -2.33656 -2.25861
C 3.49998 -1.14124 -2.91548
C -.02587 -3.40157 -2.82488
C 1.17720 -2.77988 -3.14123
C -1.84431 -3.84969 .16568
C -.74246 -3.85402 1.14730
C -1.53056 -4.04358 -1.17784
C -.17157 -4.16188 -1.62221
C .88354 -4.27692 -.71453
C 2.17433 -3.92813 -1.20241
C -3.39896 -2.67052 -1.94990
C -3.89479 -2.64229 -.58689
C -3.11193 -3.17336 .46638
C -3.28394 -2.58838 1.73363
C -2.24769 -3.34959 -2.23056
C -4.52682 .66995 -1.68105
C -3.63125 -1.39941 -2.56496
C -4.52471 -.69554 -1.68369
C 2.33610 -.70027 -3.68998
C 1.13261 -1.43380 -3.71158
C -.11862 -.72187 -3.81921
C -.12093 .71698 -3.81671
C -1.28851 -2.78252 -3.13371
C -1.37042 -1.44697 -3.54963
C -2.60193 -.73072 -3.26858
C -2.60426 .71699 -3.26588
C -3.63581 1.37992 -2.55976
