96 

C -1.27494 -4.38751 .56520
C -.18015 -4.23375 1.42670
C 1.09848 -4.45995 .85847
C 2.30324 -3.93946 1.46450
C 2.20501 -3.18829 2.60528
C -2.54634 -3.74710 .84455
C -3.72739 -1.92194 1.83708
C -2.67516 -2.84407 1.92433
C -1.49872 -2.53060 2.74936
C -.30045 -3.31818 2.56429
C .89279 -2.86008 3.13916
C 4.41296 -.29939 1.78814
C 4.02985 -1.65755 1.80900
C 3.06918 -2.03119 2.78569
C 2.32443 -1.04951 3.47821
C -.96254 1.57460 3.69203
C .13739 .73201 3.75604
C 1.42847 1.26092 3.37372
C 2.55098 .32709 3.27440
C 3.68666 .67392 2.52590
C -3.67672 -.66506 2.55073
C -2.53690 -.31509 3.29116
C -1.41377 -1.24857 3.38748
C -.12052 -.71810 3.75967
C .97900 -1.56088 3.69245
C -2.30915 1.06239 3.48759
C 4.07640 -2.41176 .55619
C 3.20136 -3.51468 .39859
C 4.89648 .34535 .57761
C 4.89310 -.34970 -.60620
C 4.45136 -1.73306 -.62433
C 4.45592 1.72906 .59837
C 4.07479 2.40814 -.57980
C 3.20120 3.51158 -.41691
C -.87938 2.87150 3.13261
C .31065 3.32728 2.54887
C 1.50997 2.54036 2.72991
C 2.68183 2.85034 1.89678
C 3.73359 1.92782 1.80691
C 2.54705 3.74913 .81429
C 3.72208 -1.93136 -1.82875
C 2.66935 -2.85323 -1.91236
C 2.54012 -3.75178 -.82886
C 1.49309 -2.54243 -2.73864
C .29441 -3.32861 -2.55031
C -.89859 -2.87221 -3.12697
C 3.67211 -.67742 -2.54757
C 2.30562 1.04706 -3.49185
C 2.53251 -.32977 -3.28948
C 1.40885 -1.26298 -3.38201
C .11588 -.73332 -3.75634
C -.98411 -1.57520 -3.68551
C 4.02086 1.65388 -1.83232
C 4.40339 .29539 -1.81389
C 3.05473 2.02822 -2.80330
C .17373 -4.23963 -1.40900
C 1.26851 -4.39047 -.54688
C -2.21090 -3.19753 -2.59160
C -2.30960 -3.94420 -1.44792
C -1.10505 -4.46287 -.83984
C -3.07447 -2.04069 -2.77669
C -4.03507 -1.66254 -1.80161
C -4.41766 -.30408 -1.78636
C .95910 1.55914 -3.69804
C -.14130 .71694 -3.75843
C -1.43214 1.24809 -3.37826
C -2.55518 .31530 -3.27510
C -2.32924 -1.06220 -3.47313
C -3.69074 .66579 -2.52809
C -4.08205 -2.41175 -.54585
C -3.20758 -3.51459 -.38384
C -4.45671 -1.72808 .63187
C -4.45947 1.72921 -.60495
C -4.90084 .34580 -.57849
C -4.89765 -.34447 .60811
C -3.20356 3.51522 .40300
C -4.07785 2.41288 .57041
C .87662 2.85826 -3.14384
C -.31316 3.31708 -2.56191
C -1.51296 2.53016 -2.73971
C -2.54925 3.74729 -.82914
C -2.68468 2.84419 -1.90787
C -3.73700 1.92265 -1.81426
C 1.09610 4.45811 -.86440
C 2.29716 3.93693 -1.47743
C 2.19201 3.18569 -2.61752
C -1.27588 4.38702 -.55730
C -.18603 4.23271 -1.42508
C -2.19453 3.19758 2.60490
C -2.29926 3.94434 1.46180
C -1.09790 4.46233 .84674
C .18408 4.23837 1.40834
C 1.27409 4.38853 .53988
C -4.40741 .30525 1.81308
C -4.02421 1.66361 1.82591
C -3.05777 2.04128 2.79524
