96 

C -4.59609 2.03996 .13638
C -4.34666 1.82208 1.55103
C -4.89576 .96791 -.68183
C -4.50452 .56581 2.09504
C -3.54958 .09662 3.05922
C -1.83414 3.65013 -1.74421
C -3.02377 2.90703 -1.57380
C -3.66658 3.03299 -.32562
C -2.90416 3.46972 .81196
C -1.64375 4.02281 .66533
C -1.23073 4.32161 -.67467
C 1.09518 4.47735 -.00758
C .17130 4.46426 -1.00449
C -1.31533 -1.31491 3.93810
C -1.20734 .07605 3.82889
C -2.37025 .81475 3.35606
C -2.19002 2.12246 2.75710
C -3.21216 2.61750 1.93358
C .29298 2.00560 3.21600
C -.85170 2.70150 2.63796
C -.63359 3.72904 1.67251
C .70092 4.12064 1.35566
C -3.21588 1.70229 -2.36987
C -4.20118 .81180 -1.94327
C -.79172 3.20606 -2.66447
C -.88495 1.95565 -3.33656
C -2.12439 1.19774 -3.22804
C -2.12092 -.17446 -3.60201
C -.92739 -.72921 -4.14918
C .42929 3.70919 -2.23047
C 1.65364 2.99533 -2.43014
C 1.62564 1.81041 -3.21340
C .33985 1.32562 -3.71116
C .26196 -.00321 -4.19896
C 3.83205 1.19888 -2.30071
C 2.76929 .88886 -3.15080
C 3.78065 2.32999 -1.42122
C 2.72254 3.22729 -1.46736
C 2.42132 3.94185 -.24757
C -3.07446 -1.10688 -3.01136
C -4.08332 -.60332 -2.19608
C -.57231 -2.13337 -3.95476
C -1.37064 -2.93664 -3.19449
C -2.66643 -2.45477 -2.76096
C .86175 -2.21768 -3.80972
C 1.45480 -3.03780 -2.80761
C 2.75984 -2.71121 -2.43822
C 2.60517 -.51271 -3.52259
C 1.37749 -.93036 -4.06063
C 3.37765 -1.50474 -2.87339
C -2.94279 -3.05133 -1.52042
C -3.82710 -2.45214 -.59444
C -4.53864 -1.31905 -1.03892
C -5.07073 -.35365 -.10789
C -4.89174 -.55307 1.24626
C -2.35269 -3.33175 1.25727
C -3.57107 -2.63257 .82745
C -4.17970 -1.72537 1.71288
C -1.89245 -3.09728 2.54828
C -2.41826 -2.02658 3.34949
C -3.52296 -1.34112 2.93313
C -1.75040 -3.77573 -1.08013
C .02697 -3.94502 .58084
C -1.37850 -3.82911 .26770
C 1.79220 -3.37662 2.24362
C .44491 -3.68467 1.95856
C -.49746 -3.22267 2.88422
C .58744 -3.70957 -1.83356
C -.79094 -3.71591 -2.10837
C 3.26937 -3.04067 -1.12118
C 2.42152 -3.59373 -.14154
C 1.01462 -3.88885 -.47215
C 2.79241 -3.36227 1.19628
C 3.40262 -1.82923 2.81354
C 2.13827 -2.41238 3.21216
C 1.12082 -1.63105 3.82791
C -.16472 -2.15900 3.78111
C 3.62972 -.50481 3.04655
C 4.27315 -2.09194 -.78555
C 4.46931 -1.67613 .55102
C 3.79585 -2.42541 1.54416
C 4.87332 .61628 -.27092
C 4.61090 .17404 -1.63064
C 4.36356 -1.14897 -1.88591
C 4.36737 .28840 2.07645
C 4.78118 -.26819 .81907
C 2.89961 3.48173 .97593
C 3.88174 1.59785 2.16846
C 3.89701 2.46140 1.04059
C 4.41365 1.96819 -.16855
C 1.27047 -.18410 3.90432
C .12893 .66901 3.76980
C 2.56652 .32923 3.60483
C 2.73153 1.60832 3.09920
C 1.61017 2.46044 2.89475
C 1.79147 3.51744 1.95419
