96 

C -2.35099 -3.77277 .74972
C -3.50491 -3.02065 .63994
C .38177 -4.63598 .55178
C -.38597 -4.63368 -.56814
C -1.79179 -4.28887 -.48028
C 1.78731 -4.28984 .46531
C 2.34632 -3.76791 -.76275
C 3.49977 -3.01561 -.64972
C -2.16235 -3.75352 -1.71224
C -3.27141 -2.85265 -1.82040
C -4.01823 -2.59146 -.64112
C -3.20319 -1.84442 -2.80203
C -.94143 -3.55708 -2.51720
C .50484 -1.79872 -3.43627
C -.78205 -2.39525 -3.31182
C -1.95247 -1.59852 -3.52842
C 1.82845 .25888 -3.75498
C .57190 -.39401 -3.82124
C 1.44119 -3.52774 -1.90570
C .14153 -4.09041 -1.81972
C 3.83253 -2.00103 -1.62541
C 2.90833 -1.67241 -2.67162
C 1.64883 -2.41898 -2.77975
C 2.99381 -.39401 -3.20154
C -3.84614 -.59643 -2.60076
C -4.57725 -.32640 -1.41657
C -4.67313 -1.35311 -.44498
C -4.60561 1.03453 -.96441
C -3.01143 .41936 -3.18728
C -1.66498 2.44267 -2.76298
C -2.92428 1.69541 -2.65275
C -3.84500 2.01928 -1.60195
C -.15401 4.10999 -1.80272
C -1.45442 3.54751 -1.88569
C -.59211 .42211 -3.81708
C -1.84836 -.23133 -3.74799
C 1.93352 1.62526 -3.53014
C .76388 2.42091 -3.30549
C -.52367 1.82498 -3.42691
C .92616 3.57922 -2.50640
C -4.67181 1.36175 .46626
C -4.57226 .33509 1.43753
C -4.60182 -1.02594 .98553
C -3.83723 .60583 2.61888
C -4.01728 2.60059 .65950
C -2.15858 3.76411 1.72284
C -3.26669 2.86254 1.83577
C -3.19438 1.85448 2.81737
C -2.35600 3.78256 -.73855
C -3.50904 3.02974 -.62375
C -1.79268 4.29925 .48919
C -2.99969 -.40955 3.20209
C -2.91368 -1.68568 2.66708
C -3.83822 -2.01033 1.61991
C -1.65380 -2.43199 2.77206
C -1.44579 -3.53677 1.89370
C -.14579 -4.09820 1.80571
C -1.83490 .24213 3.75792
C -.57822 -.41055 3.82208
C -.51045 -1.81355 3.43158
C 1.94680 -1.61251 3.52548
C .77678 -2.40881 3.30520
C .93672 -3.56696 2.50549
C -.93482 3.56868 2.52351
C -.77177 2.40697 3.31776
C -1.94075 1.60944 3.53881
C .51593 1.81096 3.43737
C .58523 .40628 3.82197
C 1.84187 -.24628 3.75077
C 3.19759 -1.85479 2.79769
C 3.26632 -2.85855 1.81143
C 2.15764 -3.75921 1.69942
C 4.01290 -2.59179 .63321
C 3.83992 -.60565 2.60176
C 4.59789 1.03293 .97219
C 4.57077 -.32997 1.41863
C 4.66719 -1.35229 .44247
C .14513 4.10266 1.82189
C 1.44552 3.54023 1.90305
C 1.65698 2.43169 2.77635
C 3.83638 2.01446 1.61358
C 2.91656 1.68547 2.66340
C 3.00482 .40712 3.19292
C 1.78339 4.30212 -.46917
C .37743 4.64740 -.55056
C -.38675 4.64471 .57185
C 3.49974 3.02880 .63941
C 2.34678 3.78041 .75691
C 3.18704 1.86809 -2.80717
C 4.00892 2.60537 -.64538
C 3.25861 2.87181 -1.82097
C 2.14978 3.77189 -1.70469
C 4.59584 -1.01893 -.98668
C 4.66457 1.36625 -.45708
C 4.56585 .34398 -1.43297
C 3.83079 .61932 -2.61352
