96 

C -3.28757 1.62116 -3.26778
C -3.64588 2.21895 -1.92492
C -4.75991 1.54424 -1.14017
C -4.93920 1.89849 .33431
C -4.05681 2.98114 .90908
C -1.98762 1.96479 -3.93451
C .42923 2.87835 -3.74356
C -1.00404 2.88829 -3.24855
C -1.30676 3.37442 -1.84973
C -2.66209 3.10099 -1.22470
C -2.91480 3.51564 .06862
C -4.58335 .47295 2.52609
C -3.77742 1.61302 3.13867
C -5.10373 .59731 1.11037
C -3.51748 2.86693 2.33616
C -2.09840 3.41520 2.29823
C -2.64712 1.01853 3.98048
C -1.25513 1.60532 3.83123
C -1.03267 2.83356 3.02202
C 2.09853 4.22829 .97969
C .67851 4.00058 1.44362
C .38900 3.26875 2.73198
C 1.52223 2.70636 3.56534
C 1.54834 3.49014 -2.90300
C 1.23213 3.98034 -1.50595
C -.18741 3.92093 -.99256
C -.44827 4.19738 .46467
C -1.85869 4.05515 .97599
C 2.37612 4.16069 -.52506
C -2.83568 -3.08573 2.36000
C -3.76052 -1.95163 1.98199
C -3.96347 -.84087 2.99112
C -2.79355 -.50427 3.91446
C 1.29576 1.33447 4.20256
C -.06505 .71949 4.11787
C -.19889 -.76515 3.88413
C -1.56957 -1.40028 3.89921
C -1.73750 -2.81697 3.38571
C -4.03562 -1.68238 .52279
C -4.99634 -.57587 .13921
C -2.29029 -4.03381 1.29101
C -2.35976 -3.56699 -.15253
C -3.20615 -2.37527 -.52962
C -3.33206 -1.96270 -1.97609
C -2.56208 -2.69695 -3.05667
C -.91351 -4.47696 1.78114
C .13633 -4.93751 .79579
C -.14164 -4.83327 -.70222
C -1.41716 -4.16125 -1.17296
C -1.48357 -3.68794 -2.61004
C 1.60449 -4.58795 1.03670
C 3.29344 -2.96740 2.13456
C 1.94370 -3.61015 2.14541
C 2.53684 .47779 3.95970
C 2.37171 -.97389 3.56003
C 1.00527 -1.57129 3.46891
C .83336 -2.97783 2.95057
C -.51801 -3.65965 3.00912
C 3.54724 -1.68198 2.91682
C -4.04668 -.67704 -2.32296
C -4.86790 .02349 -1.26229
C -1.92592 -1.81813 -4.13399
C -2.43176 -.41134 -4.36119
C -3.57387 .13891 -3.51063
C .96592 1.60500 -4.39685
C -1.45408 .70296 -4.60783
C .03140 .42253 -4.53657
C 1.16814 -4.46536 -1.40230
C 1.10206 -3.42696 -2.50403
C -.17527 -3.32763 -3.30908
C -.43042 -2.11265 -4.19829
C 1.80184 -1.07185 -3.34837
C .50225 -.94551 -4.10283
C 3.28614 -2.34433 -1.61682
C 2.05802 -2.28123 -2.48850
C 4.38142 -1.31004 -1.76216
C 4.10116 -.06894 -2.61381
C 2.82834 .03223 -3.42921
C 2.40974 1.39958 -3.93635
C 4.85160 -1.59112 .81744
C 4.06407 -2.90058 .81779
C 3.30448 -3.28612 -.43672
C 2.24385 -4.33500 -.32690
C 5.04221 -.82712 -.47228
C 3.54135 1.32269 3.17593
C 4.30160 .66359 2.04305
C 4.52243 -.83342 2.09910
C 4.14549 2.87136 .63138
C 3.21189 3.45922 1.68481
C 2.92489 2.69849 2.95830
C 5.07804 .69700 -.46797
C 4.57505 1.42485 .76343
C 2.78286 2.60659 -3.07770
C 4.55338 1.15659 -1.82597
C 3.76278 2.44157 -1.93569
C 3.64975 3.34915 -.73128
