96 

C .41832 3.65704 2.38130
C 1.58236 2.99059 2.73258
C 2.71387 3.22189 1.89287
C 3.86413 2.34200 1.91384
C 3.82377 1.21220 2.69866
C -.86738 3.20764 2.84031
C -1.03236 1.93784 3.40956
C .16895 1.13320 3.66717
C 1.46314 1.72116 3.44147
C 2.60297 .88550 3.43215
C -1.27076 -.92260 3.69291
C .04932 -.29850 3.76875
C 1.21120 -1.12091 3.56297
C 2.46497 -.50981 3.43667
C -1.33513 -2.29546 3.43292
C -2.33710 1.31009 3.28876
C -3.35448 1.99145 2.58351
C -2.46053 -.12421 3.44803
C 4.95286 1.09473 .09166
C 4.97700 -.08923 .94723
C 4.38190 2.26592 .55841
C 4.38765 -.03224 2.20485
C 3.53943 -1.09523 2.63315
C 4.76481 -1.23791 .12555
C 3.94006 -2.30394 .53750
C 3.30591 -2.22356 1.84327
C -.16473 -3.05844 3.07109
C 1.09765 -2.48334 3.05940
C 2.10184 -3.00667 2.13342
C 1.70383 -3.96427 1.20028
C 4.07751 -1.47970 -2.21150
C 4.69705 .68039 -1.25070
C 4.75378 -.77344 -1.25630
C 3.37624 -2.69070 -1.85201
C 2.21541 -3.92202 -.15872
C 3.30807 -3.11139 -.50435
C 3.30057 -.78283 -3.20940
C 3.14822 .62043 -3.14983
C 3.79218 1.37445 -2.08086
C 3.13892 2.56902 -1.56116
C 3.49645 3.00603 -.28553
C 1.98929 1.14957 -3.74094
C 2.18935 -1.61186 -3.53528
C -.29111 -1.74249 -3.57573
C .96417 -1.07596 -3.95074
C .95715 .31312 -4.22260
C -2.68411 -1.52648 -3.13526
C -1.52228 -1.01195 -3.73391
C 1.12556 -4.11567 -1.04584
C 1.04799 -3.39870 -2.25709
C 2.23370 -2.78564 -2.69235
C -1.42343 -3.26411 -1.95170
C -.24847 -2.88885 -2.70370
C -2.62363 -2.61080 -2.23464
C 1.37976 2.37270 -3.24541
C 1.83219 3.00375 -2.10053
C .84631 3.69605 -1.25595
C 1.24248 4.03404 .09569
C 2.52668 3.66830 .56925
C .26107 4.23084 1.07299
C -.00783 2.32772 -3.57813
C -2.29663 2.47615 -2.90734
C -.97170 2.96467 -2.78560
C -.55053 3.65530 -1.57869
C -1.56232 3.90650 -.54208
C -1.12582 4.21571 .74397
C -1.50301 .42830 -4.02052
C -.27382 1.06305 -4.18500
C -2.56544 1.24480 -3.53911
C -3.27320 2.67062 -1.84926
C -2.92210 3.35593 -.67109
C -3.65662 3.02080 .49112
C -3.05568 3.15685 1.80443
C -1.83157 3.74733 1.92460
C -4.15196 1.56426 -1.83510
C -4.68018 1.06517 -.61606
C -4.49705 1.87311 .52592
C -4.35731 -1.23159 -1.50119
C -3.79994 -.68334 -2.72739
C -3.73250 .67065 -2.90297
C -4.75071 -.92571 .85790
C -4.80138 -.38805 -.44646
C -.05619 -4.38972 -.25812
C -2.31936 -3.71459 .38929
C -1.31476 -3.94672 -.64973
C -4.14297 -2.18432 1.11632
C -3.50309 -2.91104 .08393
C -3.67466 -2.43817 -1.23119
C -3.53974 -2.11193 2.43765
C -2.44407 -2.87516 2.72180
C -1.92439 -3.80612 1.73519
C -.55798 -4.03674 2.09069
C .34556 -4.40921 1.11991
C -4.36953 1.28033 1.85315
C -4.49158 -.07102 2.01316
C -3.59956 -.75942 2.90726
