96 

C 3.50564 2.83342 .98062
C 3.82025 1.76622 1.84858
C 4.74157 .81008 1.36869
C 4.77010 -.53700 1.89915
C 3.87181 -.88668 2.88715
C 2.24533 3.55302 1.10418
C 1.27614 3.20264 2.08685
C 1.55586 2.08307 2.96401
C 2.83971 1.38170 2.86316
C 2.92393 .09053 3.38367
C -.82158 2.02976 3.53057
C .45460 1.42481 3.58357
C -1.85312 3.99961 .20129
C -.46761 4.08851 .54964
C -.06152 3.64082 1.86810
C -1.07279 3.14916 2.74087
C 4.37554 -2.66418 .73695
C 3.41205 -3.01519 1.76144
C 5.05853 -1.45196 .81348
C 3.19884 -2.16947 2.83593
C 1.86052 -1.99096 3.33924
C -1.70224 -2.71968 2.38191
C -2.96728 -2.17211 2.58699
C -.56025 -2.10613 3.05073
C .75640 -2.64235 2.78405
C .96987 -3.46419 1.60185
C 2.26707 -3.61948 1.11933
C .49978 -.00727 3.82885
C 1.73111 -.62452 3.76144
C -2.04863 1.24469 3.63685
C -1.98857 -.16975 3.64924
C -.69150 -.82498 3.64438
C -3.10946 -.86225 3.17973
C 4.79177 -1.10350 -1.60084
C 4.04264 -2.34003 -1.67351
C 5.25617 -.65360 -.37907
C 3.82900 -3.09395 -.53258
C 2.51984 -3.65097 -.30034
C -.97664 -3.44666 -1.63465
C -2.27406 -3.60448 -1.15360
C .12006 -3.66127 -.71439
C 1.47009 -3.48536 -1.20401
C 1.69692 -2.69873 -2.40696
C 2.96294 -2.15108 -2.60640
C -1.47683 -3.49470 1.17099
C -.12720 -3.66797 .67957
C -2.52685 -3.64973 .26572
C 3.07398 1.93917 -2.91932
C 4.10009 1.21153 -2.24940
C 4.18835 -.16550 -2.53319
C 3.10726 -.83557 -3.18582
C .68937 -.78996 -3.65055
C 1.98754 -.13678 -3.64835
C 2.04994 1.27732 -3.62160
C -1.73281 -.58409 -3.76578
C -.50039 .03170 -3.82668
C -.76169 -2.61343 -2.80861
C .55592 -2.07680 -3.06972
C -1.86458 -1.95436 -3.35708
C 4.53703 1.68061 -.93250
C 5.07038 .74806 -.02282
C 2.48777 3.14546 -2.34926
C 2.87289 3.56214 -1.10687
C 3.88516 2.81721 -.37400
C 1.07728 3.17457 -2.70711
C 1.85889 3.99802 -.15905
C .47362 4.09307 -.50666
C .06680 3.65941 -1.82955
C -.45287 1.46126 -3.56685
C .82427 2.06339 -3.50750
C -2.92434 .12944 -3.38059
C -2.83805 1.41526 -2.84692
C -1.55309 2.11537 -2.94062
C -1.27162 3.22583 -2.05239
C -2.24042 3.56816 -1.06615
C -3.87379 -.85096 -2.89360
C -4.77142 -.50964 -1.90196
C -4.74069 .83193 -1.35793
C -3.81804 1.79126 -1.82822
C -3.50193 2.84929 -.94948
C -4.38076 -2.64926 -.76145
C -3.41794 -2.99162 -1.78950
C -3.20319 -2.13541 -2.85534
C -5.06150 -1.43504 -.82566
C -4.79440 -1.11162 1.59209
C -4.04733 -2.35004 1.65215
C -3.83504 -3.09279 .50366
C -5.25787 -.64851 .37492
C -3.07171 1.91509 2.94109
C -4.09904 1.19571 2.26408
C -4.18955 -.18401 2.53391
C -3.88135 2.82003 .40487
C -2.86792 3.55591 1.14496
C -2.48347 3.12602 2.38294
C -5.06970 .75639 .03294
C -4.53522 1.67877 .95202
