96 

C -3.78425 -3.09553 -.72345
C -4.52638 -2.56517 .31265
C -3.91859 -2.43153 1.61728
C -2.44554 -.95850 3.48507
C -.38780 -2.12109 2.90208
C -1.83154 -2.04690 2.86070
C -2.57593 -2.78438 1.84790
C 1.65245 -3.12775 2.06562
C .27587 -3.06226 2.02554
C -.39177 -3.49909 .81838
C -1.83550 -3.42948 .77094
C -2.45299 -3.57765 -.47311
C -5.39263 -.79655 -1.16456
C -4.52824 -1.30182 -2.22130
C -5.39186 -1.41781 .08161
C -3.78513 -2.44779 -2.02271
C -2.45450 -2.53661 -2.56082
C .27269 -.22843 -3.65630
C 1.64939 -.23415 -3.73390
C -.39422 -1.45619 -3.27883
C -1.83813 -1.45359 -3.19217
C -2.57955 -.20595 -3.32336
C -3.92177 -.17910 -2.90057
C -.30139 -3.28550 -1.63321
C -1.67829 -3.35221 -1.66490
C 3.89486 -2.61767 -1.30315
C 2.55151 -2.99343 -1.48985
C 1.80851 -2.38301 -2.58481
C .36441 -2.45897 -2.61716
C 2.42462 -1.37932 -3.33605
C .36560 -3.57342 -.38182
C 2.42658 -3.49803 .91029
C 1.80954 -3.50132 -.34275
C -3.78061 2.17935 -2.30536
C -5.39126 .64773 -1.25295
C -4.52598 1.01902 -2.36316
C -1.83562 1.04716 -3.34447
C -.39174 1.03706 -3.43022
C -2.44977 2.20000 -2.84970
C -3.77827 2.98057 -1.09479
C -4.52152 2.58179 -.00215
C -5.38913 1.41635 -.09183
C -5.38827 .77080 1.20318
C -5.38958 -.61908 1.28824
C -2.44605 3.48732 -.90428
C .28267 3.27495 1.63972
C 1.65959 3.34122 1.67244
C -.38446 3.56336 .38826
C -1.82862 3.49103 .34873
C -2.57044 2.98318 1.49573
C -3.91383 2.60719 1.30917
C -.29495 3.05258 -2.01891
C -1.67179 3.11714 -2.05934
C 3.90023 2.42139 -1.60854
C 2.55763 2.77468 -1.83986
C 1.81701 3.41964 -.76323
C .37303 3.48954 -.81166
C 2.43448 3.56680 .48115
C .36902 2.11136 -2.89478
C 2.42695 .94929 -3.47718
C 1.81298 2.03754 -2.85291
C -4.52018 1.54443 2.07889
C -4.52275 -1.28170 2.25176
C -3.77695 -.53674 3.14284
C -3.77565 .91229 3.05425
C -1.82721 2.37313 2.59095
C -.38312 2.44862 2.62361
C -2.44334 1.37002 3.34284
C 2.43576 2.52538 2.56867
C 1.81943 1.44246 3.19976
C .37555 1.44589 3.28584
C -.29135 .21859 3.66372
C -1.66805 .22494 3.74127
C 2.56076 .19447 3.33099
C 1.81670 -1.05831 3.35175
C .37295 -1.04721 3.43774
C 2.43046 -2.21130 2.85638
C 3.76646 2.43595 2.03116
C 4.50950 1.28965 2.22964
C 3.90294 .16690 2.90837
C 5.37316 1.40638 -.07289
C 4.50793 2.55410 -.30368
C 3.76564 3.08422 .73220
C 5.37390 .78444 1.17290
C 3.75834 .52743 -3.13485
C 5.37090 .60842 -1.27999
C 4.50428 1.27176 -2.24332
C 5.37221 -.65988 1.26038
C 5.37006 -1.42783 .09878
C 5.36943 -.78150 -1.19584
C 4.50131 -1.55445 -2.07216
C 3.75686 -.92166 -3.04712
C 4.50682 -1.03130 2.37039
C 3.76122 -2.19131 2.31192
C 3.75886 -2.99192 1.10089
C 4.50228 -2.59297 .00839
