96 

C 3.56938 2.47648 1.61185
C 3.98625 1.14693 1.83757
C 4.75548 .53738 .80404
C 4.90599 -.85577 .74650
C 4.32830 -1.65345 1.75133
C 3.49606 -1.05211 2.72408
C 3.21823 .33547 2.73413
C 2.46167 3.00476 2.27227
C 1.54594 2.15129 2.97583
C 4.18536 -2.45232 -.96248
C 3.64855 -3.31668 .08026
C 4.78489 -1.25988 -.64501
C 3.74064 -2.93796 1.40167
C 2.59718 -3.13982 2.25876
C 1.43229 -3.81620 1.79630
C .28231 -3.62155 2.55321
C -.22558 3.74525 2.37358
C .14415 2.55463 3.02211
C 1.91990 .80581 3.21753
C -.49796 .22020 3.66181
C .88688 -.16662 3.60834
C 1.21323 -1.57033 3.56119
C 2.47410 -2.00126 3.08802
C .18387 -2.53139 3.47509
C 1.81303 -1.41648 -3.62812
C 2.99921 -1.37383 -2.88127
C 3.29070 -2.52187 -2.10259
C 2.25744 -3.45269 -1.79630
C -.19612 -3.76647 -1.62972
C .98506 -3.36809 -2.39178
C .85593 -2.45022 -3.45324
C -2.61881 -3.50866 -1.29626
C -1.50982 -3.37700 -2.13704
C 1.29697 -4.12274 .36639
C 2.41019 -3.88939 -.42987
C -1.03169 -3.87799 2.01742
C -1.20362 -4.13481 .61063
C -.04078 -4.13937 -.25820
C -2.46161 -3.85118 .07763
C 3.52322 -.07442 -2.48863
C 4.49210 -.06266 -1.43001
C 1.11006 -.21252 -3.96338
C 1.50373 1.02159 -3.48207
C 2.77721 1.11379 -2.75550
C 3.05077 2.31362 -1.98033
C 2.12422 3.38347 -2.03501
C -.28431 -.55357 -4.13450
C -2.57029 -.16542 -3.56552
C -1.30994 .37272 -3.85085
C -.95167 1.70079 -3.36315
C .45673 2.04035 -3.29780
C .81885 3.21486 -2.65854
C -1.61819 -2.41056 -3.23104
C -.43656 -1.92070 -3.81944
C -2.73928 -1.55418 -3.29246
C 3.91472 2.24689 -.84119
C 4.59411 1.02841 -.57431
C 1.98534 4.31140 -.97889
C 2.71694 4.11939 .21226
C 3.66916 3.09137 .27738
C .58678 4.71204 -.90974
C 2.00517 4.13012 1.48286
C .69021 4.49032 1.53233
C -.02049 4.87676 .31852
C -1.39501 4.48189 .48490
C -3.31969 3.24180 -.22364
C -2.14149 3.94498 -.57817
C -3.52740 .57668 -2.77928
C -3.21116 1.84935 -2.28430
C -1.90524 2.45205 -2.60167
C -1.45614 3.58532 -1.81851
C -.12768 4.00580 -1.95607
C -3.90343 2.25248 -1.11732
C -4.44396 1.70088 1.05590
C -3.57975 2.86480 1.09982
C -2.53834 2.98290 2.07996
C -1.52425 3.89058 1.79540
C -4.31098 .73368 2.00581
C -4.30886 -.35062 -2.03126
C -4.75270 -.03341 -.73158
C -4.63186 1.32551 -.34035
C -4.25780 -2.35744 -.05612
C -3.78591 -2.65087 -1.39861
C -3.83658 -1.68098 -2.36559
C -4.50807 -.66425 1.65944
C -4.71439 -1.07327 .30137
C -1.93598 -3.07715 2.71700
C -3.70023 -1.41172 2.52543
C -3.17335 -2.66773 2.12937
C -3.47547 -3.14375 .84455
C -2.24022 1.86314 2.94384
C -.88844 1.58254 3.32171
C -3.21887 .81177 2.97848
C -2.87058 -.47832 3.31522
C -1.52252 -.80547 3.68218
C -1.16716 -2.15655 3.55860
