96 

C 2.39080 1.09722 -3.60746
C 2.37527 2.30987 -2.90797
C 3.42520 2.51314 -1.97498
C 1.02925 3.96382 -1.71299
C 1.09674 2.99905 -2.71779
C -1.38312 2.79536 -2.57125
C -.15166 2.38896 -3.17085
C -.10621 1.11528 -3.86719
C 1.15573 .50343 -4.09156
C -2.55052 2.03584 -2.82889
C -1.40409 3.66259 -1.40939
C -2.44238 3.49002 -.38763
C -.20455 4.27641 -1.05028
C -2.13465 3.83765 .92686
C 4.22701 1.42928 -1.53765
C 3.29305 .05580 -3.27099
C 4.11709 .15362 -2.12076
C 2.64572 -1.18573 -3.62196
C 2.87433 -2.30208 -2.87071
C 1.30226 -.88800 -4.08201
C 1.75929 -3.17532 -2.52371
C .42992 -2.88979 -2.92072
C .19612 -1.73150 -3.76925
C -2.50559 .83345 -3.54180
C -1.25597 .27427 -3.92870
C -1.10031 -1.16584 -3.85183
C -2.18893 -1.93874 -3.33746
C 3.78085 -2.24794 -1.74099
C 4.32701 -1.03238 -1.28578
C 4.56768 -.87397 .14512
C 3.33504 -3.25507 -.83036
C 3.59649 -3.12216 .50999
C 4.26148 -1.95156 .99527
C .27691 -3.89194 1.98383
C 2.59221 -3.53427 1.47989
C 1.32376 -4.01576 1.06179
C 2.03185 -3.75517 -1.27737
C -1.94920 -2.97614 -2.42959
C -.62905 -3.38815 -2.10320
C -.37110 -3.90073 -.78071
C .98934 -4.05139 -.35580
C -1.44781 -3.83440 .22232
C -1.09434 -3.86366 1.56187
C 4.58577 .46835 .73675
C 4.46678 1.58809 -.10665
C 3.77946 -1.74479 2.34908
C 3.69626 -.48198 2.86313
C 4.15641 .64017 2.07923
C 2.70701 -2.68760 2.60906
C 1.56159 -2.31302 3.36074
C .40250 -3.06365 3.13224
C 3.37445 1.76181 2.45513
C 3.14428 2.82376 1.56967
C 3.82250 2.77538 .32293
C 3.24586 3.39750 -.84857
C 2.09494 4.12331 -.73431
C .88257 3.14360 2.64781
C 1.89594 3.57300 1.68396
C 1.48544 4.32424 .56790
C -.41858 3.60754 2.48179
C -.82884 4.30358 1.29678
C .10076 4.59118 .32486
C 2.33485 1.31041 3.37771
C -.05198 1.08665 3.81847
C 1.07144 1.90248 3.41861
C -2.50891 .76852 3.62456
C -1.39802 1.62760 3.62806
C -1.55883 2.85421 2.95268
C 1.42209 -.92479 3.81965
C 2.51650 -.06985 3.60831
C -.90155 -2.54234 3.45550
C -1.05742 -1.21334 3.91304
C .11800 -.33469 3.99078
C -2.33499 -.65859 3.75524
C -4.19502 -.27615 2.44050
C -3.63604 1.00848 2.79099
C -3.62094 2.06887 1.85671
C -2.62692 3.04402 2.03688
C -4.78239 -.45456 1.21811
C -1.83499 -3.11147 2.55637
C -3.03829 -2.46133 2.23739
C -3.34714 -1.30621 2.99042
C -4.00886 -2.04906 -1.86652
C -3.03197 -3.00873 -1.45957
C -2.77250 -3.28815 -.11744
C -4.74307 -1.36803 -.90817
C -4.54991 -1.68232 .47169
C -3.57692 -2.61327 .89165
C -4.35406 .74853 -2.10238
C -3.63520 .01568 -3.12894
C -3.47654 -1.34659 -3.01978
C -4.92612 .07705 -1.03111
C -4.16322 1.85921 .51681
C -3.54313 2.54371 -.60725
C -3.65912 1.97514 -1.87882
C -4.85174 .65215 .27440
