96 

C -.86915 3.07614 2.69025
C -1.88875 2.12848 2.68987
C -2.61260 -.23193 2.95243
C -3.85026 .14179 2.40442
C -4.67389 -.78651 1.68803
C -4.27684 -2.10610 1.60254
C -.21826 .40511 3.36880
C -1.58428 .78757 3.12191
C -.85139 -2.00628 3.12019
C -2.25264 -1.62530 2.95323
C -3.13709 -2.54344 2.34385
C -.47684 -3.30148 2.71198
C -1.33787 -4.08675 1.84623
C -2.61536 -3.68704 1.62783
C .17482 -1.01386 3.29150
C 1.54677 -1.36647 3.05649
C .43144 2.74825 3.10677
C 3.10647 2.05180 2.74108
C 2.20907 1.05588 3.19413
C .80311 1.40894 3.36229
C -5.15503 -.71813 -.71400
C -4.56612 -2.04061 -.82772
C -5.24524 -.10963 .53563
C -4.25977 -2.77272 .30266
C -3.13762 -3.66832 .27981
C -4.68300 2.07868 -.45296
C -4.50999 1.42090 -1.74371
C -4.91938 1.29741 .66983
C -4.66630 .05577 -1.84025
C -3.65781 -.71702 -2.52049
C -.07290 -.30380 -3.54198
C 1.05972 -1.09034 -3.62596
C -1.32171 -.95426 -3.19024
C -2.50475 -.13069 -3.04755
C -2.39082 1.31895 -3.03825
C -3.42318 2.06038 -2.43364
C -2.44240 -2.77305 -1.89927
C -3.61592 -2.02115 -1.91557
C 1.48031 -4.27771 -1.13239
C .15545 -3.99451 -1.52101
C -.05502 -3.00981 -2.57348
C -1.30592 -2.28454 -2.66425
C 1.06785 -2.45251 -3.18885
C -2.23510 -3.70528 -.80166
C -.55256 -4.59456 .75329
C -.90664 -4.24821 -.56617
C -1.90709 3.85682 -1.82456
C -3.74633 3.15768 -.37722
C -3.12605 3.26444 -1.69162
C -1.07405 1.94085 -3.15824
C .09626 1.14388 -3.38314
C -.90127 3.23969 -2.65030
C -1.25625 4.45715 -.67815
C -1.73481 4.15405 .62248
C -2.96074 3.37306 .76954
C -3.05827 2.41215 1.85728
C -4.05010 1.44500 1.80360
C -.78598 4.11307 1.65842
C .13662 4.44813 -.94110
C 1.08325 4.41660 .09425
C .58169 4.38164 1.42415
C 2.61645 3.30913 2.21907
C 1.32584 3.66861 2.44121
C 3.74492 2.33174 -1.54514
C 2.63423 3.16689 -1.43895
C 2.40685 3.86143 -.18476
C 3.22740 3.53936 .91459
C 2.38475 -.54594 -3.44614
C 2.55597 .80607 -3.11943
C 1.39362 1.67855 -3.08088
C 1.50650 2.92328 -2.35042
C .35726 3.67353 -2.16183
C 3.71601 1.14823 -2.39042
C 5.07289 .69427 -.56082
C 4.61178 2.06811 -.44201
C 4.30226 2.60900 .80123
C 5.12789 -.10870 .55997
C 3.21602 -1.55524 -2.89203
C 4.20244 -1.22631 -1.93454
C 4.52546 .14858 -1.79714
C 3.56438 -3.26745 -.68744
C 2.61397 -3.62840 -1.73670
C 2.41311 -2.76193 -2.78174
C 4.73039 -1.50186 .46490
C 4.35215 -2.09537 -.76618
C .80831 -4.49581 1.18772
C 4.00958 -1.81856 1.64624
C 3.06661 -2.84495 1.67804
C 3.01532 -3.69821 .54700
C 1.80988 -4.44885 .25824
C 4.25795 1.72375 1.96344
C 4.62522 .40000 1.82907
C 3.81715 -.61330 2.42692
C 2.57554 -.32424 3.02108
C 1.87460 -2.66534 2.50781
C .85136 -3.60106 2.34747
