96 

C 1.47933 -4.36534 -.94857
C 2.64436 -3.59629 -1.04954
C 3.41968 -3.46875 .13345
C 4.42471 -2.45482 .24426
C 4.68483 -1.63669 -.84610
C .38996 -4.17594 -1.85460
C -.99958 -2.51028 -2.98604
C .30989 -3.00194 -2.63674
C 1.46119 -2.12170 -2.70327
C 2.67719 -2.53355 -2.03441
C 3.74928 -1.63572 -1.95495
C -2.46157 -.58533 -3.33764
C -1.15817 -1.11699 -3.36960
C 1.29305 -.73766 -3.09288
C 4.28740 1.84529 -1.55554
C 5.12988 -.27099 -.64004
C 4.56583 .51169 -1.72725
C -.02677 -.20846 -3.35790
C 2.39126 .18474 -2.91989
C 3.62773 -.30960 -2.45035
C 3.13016 2.41346 -2.18851
C -.25931 1.22669 -3.29298
C 2.14866 1.60957 -2.81840
C 4.42946 2.45301 -.24353
C 4.68361 1.63466 .84823
C 5.12750 .26821 .64431
C 4.55741 -.51367 1.72884
C 4.27769 -1.84701 1.55573
C 3.42566 3.46855 -.13754
C 2.64525 3.59754 1.04192
C 1.48188 4.36849 .93543
C .96771 4.76220 -.34325
C 1.44767 4.06917 -1.48769
C 2.73803 3.53159 -1.39405
C -.42671 5.03782 -.18187
C -1.30984 4.67089 -1.18471
C -2.68726 .80378 -3.17085
C -1.61753 1.71699 -3.20474
C .80975 2.12695 -2.94139
C -1.88989 2.98875 -2.66450
C -.83528 3.84865 -2.27126
C .50622 3.43606 -2.38221
C -.85111 -3.84183 2.24748
C .49042 -3.43150 2.36471
C 2.13389 -1.60764 2.80862
C 3.11672 -2.41317 2.18318
C 2.67227 2.53496 2.02719
C 3.74325 1.63530 1.95268
C 3.61750 .30918 2.44762
C .38843 4.18096 1.83648
C .30309 3.00703 2.61856
C 1.45259 2.12506 2.69059
C 1.28062 .74114 3.07949
C 2.37813 -.18321 2.91137
C -.04099 .21405 3.33844
C -.27545 -1.22098 3.27229
C .79352 -2.12293 2.92542
C 1.43481 -4.06627 1.47429
C 2.72636 -3.53079 1.38665
C -1.32227 -4.66339 1.15861
C -.43539 -5.03182 .15969
C .95894 -4.75846 .32751
C -2.66166 -4.20950 .81499
C -.77195 -4.74509 -1.22728
C -2.01879 -4.27251 -1.55389
C -3.02561 -4.05124 -.51186
C -1.00865 2.51724 2.96157
C -1.17107 1.12422 3.34451
C -2.70213 -.79426 3.13867
C -1.63396 -1.70906 3.17760
C -1.90593 -2.98024 2.63583
C -3.03000 -3.19344 1.75856
C -2.13379 -3.22254 -2.52495
C -4.23361 -1.92103 .00927
C -3.81844 -2.91286 -.90738
C -3.36530 -2.53887 -2.22558
C -4.48143 -.56128 -.48038
C -4.22703 -.29828 -1.84063
C -3.53616 -1.25516 -2.65886
C -2.47510 .59446 3.30627
C -3.79704 -.97775 2.23788
C -3.85858 -2.11145 1.39814
C -2.01879 4.28097 1.52449
C -.76975 4.75178 1.20363
C -3.37077 2.54922 2.18997
C -2.13968 3.23116 2.49499
C -3.54537 1.26576 2.62220
C -2.65164 4.21930 -.84724
C -3.81770 2.92394 .86976
C -3.02144 4.06134 .47795
C -3.78625 .98911 -2.27556
C -4.23382 .31006 1.80055
C -4.48238 .57339 .43924
C -4.23064 1.93303 -.04895
C -3.84960 2.12301 -1.43610
C -3.01758 3.20390 -1.79262
