96 

C -4.22453 .55663 -2.56412
C -4.14758 -.86312 -2.04671
C -4.88075 -1.19112 -.78502
C -4.57652 -2.49014 -.05239
C -3.61886 -3.48097 -.67066
C -3.17715 1.06865 -3.55571
C -.81977 .81466 -4.60806
C -2.02669 .16953 -3.95817
C -1.88448 -1.18053 -3.29877
C -3.04453 -1.77406 -2.53296
C -2.95089 -3.18540 -1.98754
C -3.46667 -2.90941 2.29623
C -2.59649 -4.00958 1.69480
C -4.46282 -2.16812 1.43315
C -2.65567 -4.26697 .20455
C -1.40277 -4.50215 -.57963
C -1.24309 -3.97467 2.39965
C .02195 -4.11762 1.57774
C -.05957 -4.35129 .09981
C 2.18040 -3.11523 -2.96487
C .98624 -3.58447 -2.16020
C 1.16373 -4.14536 -.77025
C 2.52927 -4.16618 -.12443
C .49028 .03850 -4.74233
C .59754 -1.34405 -4.13073
C -.57574 -1.92084 -3.37365
C -.39997 -3.20705 -2.61193
C -1.59092 -3.88422 -1.96814
C 1.98159 -1.92376 -3.90773
C -3.67778 .09353 2.45144
C -2.66285 -.64395 3.28991
C -4.69536 -.66835 1.62914
C -2.64913 -2.15716 3.34147
C -1.28737 -2.85362 3.43724
C -.03422 -2.03043 3.65436
C -.14168 -.54403 3.88359
C -1.49239 .12179 3.84993
C -1.61608 1.61594 4.05641
C 2.46020 -.40104 4.11884
C 1.10381 .27342 4.10923
C 2.54923 -3.73115 1.29993
C 1.34153 -3.69471 2.19616
C 1.30496 -2.61278 3.26425
C 2.57110 -1.85718 3.64592
C -2.65280 2.36950 3.21392
C -3.51586 1.58247 2.24833
C -3.98335 2.20725 .95145
C -2.00249 3.65445 2.72056
C -2.36335 4.20810 1.36116
C -3.51775 3.60162 .55114
C -.55071 3.68252 3.19886
C .53557 3.99134 2.18551
C 1.96790 3.66562 2.54598
C 1.02089 1.78246 4.07034
C -.33765 2.45498 4.08262
C 2.21907 2.58653 3.59829
C -4.62527 1.32123 -.10338
C -5.04565 -.08879 .25729
C -3.04083 3.66702 -.88954
C -3.68993 2.89215 -1.97168
C -4.49886 1.67017 -1.55646
C -.48082 2.25129 -4.21493
C -2.85507 2.52105 -3.19539
C -1.40673 2.97671 -3.26241
C .16513 4.16651 .73327
C -1.25031 4.54976 .37507
C -1.74130 4.12836 -.97094
C .64386 3.55649 -1.76038
C -.81888 3.75596 -2.10154
C 1.12643 3.77364 -.34018
C 3.00280 3.49448 1.43762
C 2.58592 3.58265 .00345
C 3.54011 3.05184 -1.04545
C 3.04463 2.77560 -2.46216
C 1.58953 3.01456 -2.80733
C 1.03425 2.36469 -4.05911
C 3.61491 .36563 3.48455
C 3.49213 1.84152 3.19725
C 4.34929 1.40099 .78516
C 3.96610 2.37793 1.84850
C 4.45237 1.90074 -.63505
C 4.43270 -2.56174 .23943
C 3.72357 -2.83668 1.53261
C 3.80233 -1.94741 2.73545
C 4.58236 -1.07214 -.05951
C 4.46004 -.07580 1.08577
C 4.34438 -.54414 2.50711
C 4.04636 -1.51546 -2.59939
C 3.49042 -2.87947 -2.21347
C 3.67305 -3.40252 -.80925
C 4.53646 .90957 -1.78635
C 4.48014 -.57571 -1.49125
C 1.62923 1.01827 -4.46620
C 3.68758 1.46915 -2.92618
C 2.90162 .52710 -3.80894
C 3.14438 -.96105 -3.70000
