96 

C -.71541 -4.75980 -.77585
C .67402 -4.22576 -1.05190
C 1.72564 -4.23126 .03866
C -1.15305 -4.88545 .67758
C -.14224 -4.69456 1.78161
C 1.35305 -4.63995 1.45683
C -2.57155 -4.33276 .82431
C -.44177 -3.72400 2.91727
C -1.66281 -2.84355 2.78595
C -2.76108 -3.18949 1.80787
C -4.03797 -1.02400 2.55402
C -3.90693 -2.21360 1.62061
C -4.69407 -2.22307 .32400
C 3.06780 -3.61113 -.22437
C 3.40796 -3.12370 -1.61675
C 1.98218 -3.79256 2.55818
C 3.27330 -3.09768 2.31377
C 3.93258 -3.16759 .94156
C .88672 -3.08158 3.33482
C .98199 -1.56612 3.39764
C -1.60917 -1.45232 3.35309
C -2.89088 -.67455 3.50885
C 4.59066 -1.07373 2.05977
C 4.76254 -1.89034 .78448
C 4.74304 -1.16123 -.54409
C 4.35120 -1.92623 -1.79324
C 4.69134 .42663 2.01538
C -.28390 -.74086 3.39067
C 2.32110 -.89942 3.29586
C 3.54569 -1.73774 2.95019
C 3.70444 1.27853 2.80766
C -.22588 .74477 3.36304
C 2.39510 .61311 3.20863
C 5.04128 1.13116 .71030
C 4.88146 .34847 -.57985
C 4.67093 1.10302 -1.87660
C 4.00172 .37221 -3.03341
C 3.85328 -1.13033 -3.00197
C 4.41999 2.52433 .78485
C 2.77646 4.22091 -.32362
C 3.85244 3.16578 -.46272
C 4.04086 2.49076 -1.80195
C 2.35697 3.43300 2.10579
C 3.63481 2.62815 2.08859
C 2.15013 4.49505 1.04165
C -2.77389 .84532 3.54917
C -1.41238 1.51866 3.51279
C 1.11401 1.42010 3.19044
C -1.39776 2.98848 3.26386
C -.08909 3.71766 2.95760
C 1.16640 2.88616 2.85227
C .90407 -3.40355 -2.29403
C 2.30029 -3.01816 -2.65749
C 2.53856 -1.74407 -3.44333
C 2.89115 1.25384 -3.60918
C 1.53535 .62534 -3.86322
C 1.36850 -.87342 -3.81782
C -1.16766 -.61282 -4.27193
C -.00917 -1.45222 -3.77439
C -.26107 -2.65226 -2.89353
C -1.66913 -3.03712 -2.51395
C -1.90431 -4.20309 -1.57100
C 1.69660 4.34919 -1.39407
C 1.64714 3.30054 -2.48681
C 2.93336 2.58120 -2.84750
C .32148 2.68639 -2.87271
C .29863 1.48520 -3.78240
C -1.01185 .90860 -4.21687
C -2.58666 -.95049 -3.81156
C -2.81865 -2.12434 -2.88206
C -4.11263 -2.18245 -2.09232
C -4.15005 -3.05063 -.83785
C -3.06668 -4.07067 -.59373
C -3.30089 .36393 -3.50424
C -4.49256 1.73112 -1.62206
C -4.29221 .42687 -2.36269
C -4.78549 -.85840 -1.73699
C .40768 4.80612 -.70588
C -.89479 4.12453 -1.06476
C -.95057 3.13951 -2.20446
C -3.51746 2.88547 -1.84587
C -2.26811 2.59693 -2.65482
C -2.32074 1.51565 -3.71598
C -1.81916 4.51733 1.35319
C -.36622 4.68171 1.80302
C .71612 4.95730 .78209
C -3.37357 3.61718 -.51178
C -2.06441 4.21903 -.11442
C -3.89404 1.43184 2.69427
C -4.21247 2.89171 .53909
C -3.62267 2.70316 1.92131
C -2.46552 3.55165 2.33739
C -5.13977 -.88225 -.25463
C -4.89489 1.71193 -.14924
C -4.99328 .38055 .56399
C -4.64114 .27916 2.03212
