78

 C     4.2935624801     0.7176453754     1.1829283234
C     3.4484693282     1.1530376923     2.2843405689
C     4.2534160034     1.4183136999     -0.0275818439
C     2.7198774336     2.3193907135     2.1802701091
C     1.4055650588     2.3952550827     2.753763903
C     4.142729879     -0.69048623     -1.2781831266
C     4.2498196609     -1.4170742183     -0.0332433038
C     4.1444905648     0.6969769721     -1.2754127366
C     4.2917374152     -0.7213489531     1.180054379
C     3.4455376625     -1.1589860585     2.2797272814
C     3.422853407     -2.5987380259     -0.1611703649
C     2.7143476727     -3.0765592936     0.9244607755
C     2.7139911435     -2.3230619613     2.1710057312
C     2.8380406091     -0.003434966     2.9003671489
C     1.4744428817     -0.0025454428     3.3225853851
C     0.7355918464     1.2591869403     3.2808582079
C     1.1782948971     -1.4003990224     -3.4103684313
C     2.3791888222     -0.7260116511     -3.0528892407
C     3.2291742445     -1.4136109868     -2.1534045499
C     1.4622652987     -3.1072498876     -1.6365968747
C     0.7248983703     -2.550094201     -2.7069712003
C     2.780701116     -2.5862847027     -1.4584028213
C     2.3810535979     0.7440689043     -3.0499547757
C     3.2327767836     1.4259096097     -2.1477339567
C     -0.0016266973     -0.6735506368     -3.8304518322
C     0.0001171199     0.7007606183     -3.8277067066
C     1.1818773421     1.4229272731     -3.4047327751
C     -1.1833398527     -1.3974016893     -3.4102301867
C     -2.3824761616     -0.7199693448     -3.0526123442
C     -3.2340966376     -1.4054102003     -2.1530281354
C     -1.4714292296     -3.1035270413     -1.6364250997
C     -0.7327788538     -2.5482442856     -2.7068867214
C     -2.7885186797     -2.5792178124     -1.4580780042
C     -0.7404155333     -3.6614597687     -0.4945625174
C     1.4008674696     -3.6526768854     0.7522030286
C     0.7299752605     -3.6633248438     -0.4946474174
C     -1.4111326022     -3.6491113522     0.7523658135
C     0.7313959166     2.5709525392     -2.6967483012
C     1.4701689936     3.1219519843     -1.6241605569
C     2.7872771136     2.5969320201     -1.4480540974
C     3.4294512434     2.6025745539     -0.1507862388
C     2.7221520529     3.077856015     0.9367447385
C     -0.7311109044     3.6771887451     -0.4799147445
C     0.7392807954     3.6753216867     -0.4799994041
C     1.4101370273     3.6579904884     0.7667950675
C     -1.4018655811     3.6615612627     0.7669560085
C     -0.6788034475     3.3737931869     1.9750819771
C     0.6864855537     3.3720599771     1.9750038983
C     -0.7262819042     2.572803743     -2.6966633027
C     -2.7819487103     2.6040019582     -1.4477349597
C     -1.463532095     3.1256774753     -1.6239927633
C     -2.3806105071     0.7501136011     -3.0496784983
C     -1.1797575336     1.4259253061     -3.4045957982
C     -3.2304969973     1.4341128458     -2.1473613733
C     -4.2509073076     1.429105841     -0.0270927092
C     -3.4239565976     2.6112733813     -0.1503908122
C     -2.7153290124     3.0847579539     0.9370579352
C     -4.2926900661     0.7285401581     1.1834229319
C     -4.2545008646     -1.406283534     -0.0327503111
C     -4.1457137216     -0.6799689621     -1.2777004984
C     -4.1439549193     0.7074943566     -1.2749326519
C     -4.2945139667     -0.7104535336     1.1805520669
C     -2.7207163227     -2.3161662174     2.1713186809
C     -2.7231288426     -3.0696619212     0.9247755258
C     -3.4305484032     -2.5900424331     -0.1607709581
C     -3.4492971627     -1.1502386933     2.280124184
C     0.6779394148     -3.3697361937     1.9615492403
C     -1.4063416408     -2.3943160113     2.7443595417
C     -0.6873482448     -3.3680046261     1.9616279416
C     -2.7148334696     2.3262883491     2.1805830981
C     -1.4002669864     2.3988154143     2.7539242216
C     -0.7331151776     1.2610498334     3.2809394422
C     -3.4463684779     1.1617870096     2.2847383382
C     -2.8388018351     0.0037679776     2.9006929113
C     -1.4751581053     0.001196095     3.3227540044
C     -0.736311615     -1.2603587353     3.2759097305
C     0.732394992     -1.2622215713     3.2758235324
C     1.3994881959     -2.3978747464     2.7441972733


