74

C -0.798570 -3.753850 -0.758930
C -1.769800 -3.016140 -1.484700
C -2.885960 -2.534450 -0.752500
C -3.644700 -1.393980 -1.197310
C -3.233940 -0.695690 -2.324560
C 0.565460 -3.853990 -1.210490
C 0.966800 -3.150710 -2.337830
C 0.013530 -2.360540 -3.068210
C -1.353940 -2.298070 -2.683130
C -2.081170 -1.136360 -3.061530
C -4.105010 0.709510 -0.011530
C -3.628490 1.441410 -1.176110
C -4.113170 -0.674400 -0.021670
C -3.225760 0.756220 -2.313500
C -2.067720 1.196160 -3.043940
C -1.327510 2.344230 -2.648100
C 0.040470 2.398300 -3.031800
C 0.695430 -1.196830 -3.558630
C 0.000560 0.024600 -3.752060
C -1.403700 0.030410 -3.551690
C 0.709200 1.235180 -3.539870
C -3.238980 -0.729540 2.282800
C -3.230880 0.722120 2.293280
C -3.647370 -1.411010 1.144430
C -3.631190 1.424070 1.165130
C -2.858390 2.556580 0.722610
C -1.738770 3.026670 1.457730
C -0.757880 3.754190 0.734930
C -1.735460 3.048540 -1.438810
C -2.856920 2.567420 -0.714260
C -0.756350 3.765080 -0.702020
C 0.007000 -2.405810 3.009860
C -1.359740 -2.337180 2.622720
C -2.087980 -1.181260 3.016290
C -1.411650 -0.022310 3.525640
C 0.701540 1.181720 3.537740
C -0.007770 -0.031630 3.729400
C 0.687870 -1.249990 3.519020
C -1.333420 2.304450 2.657200
C -2.074680 1.150860 3.033470
C 0.033750 2.352320 3.045570
C -1.773000 -3.037420 1.412850
C -2.887590 -2.544930 0.685120
C 0.961960 -3.185190 2.269600
C 0.563040 -3.871560 1.131040
C -0.800110 -3.764630 0.678450
C 2.223410 -2.466450 2.276090
C 1.428100 -3.912680 -0.039270
C 2.630460 -3.227450 -0.033040
C 3.026530 -2.467780 1.143970
C 2.047590 1.175110 3.039330
C 2.674200 -0.038650 2.644450
C 2.033540 -1.251200 3.020470
C 2.251380 2.399340 2.313590
C 3.054830 2.408860 1.181680
C 3.646770 1.179390 0.720720
C 3.496880 -0.034160 1.441100
C 3.632590 -1.238200 0.701850
C 1.472430 3.889060 0.020460
C 0.606740 3.839730 1.189600
C 0.997920 3.132180 2.317380
C 2.667450 3.190840 0.016470
C 2.256010 2.434430 -2.293360
C 1.002760 3.167130 -2.289090
C 0.609290 3.857700 -1.151540
C 3.057090 2.426840 -1.159790
C 2.039870 -1.205080 -3.057260
C 2.679630 0.001800 -2.661130
C 2.053940 1.221420 -3.038350
C 3.633980 -1.227160 -0.735470
C 3.028800 -2.449930 -1.197560
C 2.228190 -2.431670 -2.331070
C 3.648200 1.190450 -0.716760
C 3.499800 -0.011940 -1.456150
