28

 C     -1.9978008791     1.5148277661     -0.5688282066
C     -2.6416412633     0.2947273746     -0.671783316
C     -2.6418774164     -0.2947021415     0.6708652891
C     -1.5242543523     1.748720549     0.8393134911
C     -1.7896297998     0.5526663012     1.5278498569
C     -0.1952816822     2.2281183476     0.738378592
C     -0.8498031783     1.622591442     -1.44898264
C     0.1953028706     2.2281641418     -0.7382348554
C     -1.7891056808     -0.5526492755     -1.5284733769
C     -0.6449922383     0.2736480719     -2.0454030575
C     -1.9980132139     -1.5148090575     0.5681344235
C     -1.5239794881     -1.7487055586     -0.8398431026
C     -0.6457047926     -0.2736424386     2.0451800346
C     -0.8503211253     -1.6225833561     1.4486872891
C     0.8498189295     1.6224900936     1.4490874489
C     0.6449953066     0.2735100074     2.0454211133
C     1.5242711047     1.7487602512     -0.8392008959
C     1.9978157958     1.5147720759     0.5689256843
C     0.6457022506     -0.2735167002     -2.0451974591
C     1.7896348937     0.5527476278     -1.5278138861
C     -0.1950466683     -2.2281167789     -0.7384466601
C     0.1950258143     -2.2281665264     0.7383025857
C     0.8503058746     -1.6224975654     -1.4487918551
C     1.7891008103     -0.5527652369     1.5284374486
C     2.6416446577     0.2946586128     0.6718019759
C     2.6418745921     -0.2946841901     -0.6708845862
C     1.5239632195     -1.7487745841     0.8397299451
C     1.9979986589     -1.514791253     -0.5682322805


