56
Modified xyz file
 C            1.32416250       -0.05255433        3.81779933
 C            2.44928389       -0.41385350        2.98993044
 C            2.18151575       -1.73944045        2.44088546
 C            0.49806951       -1.23962185        3.93233425
 C            0.81788091       -2.06725704        2.78106449
 C           -0.86418121       -0.78369847        4.09850389
 C            0.45231299        1.00899053        3.35957375
 C           -0.87705980        0.64679077        3.80445069
 C            0.61523161        1.51797543        2.07033275
 C            2.77048627        0.42816447        1.85759158
 C            1.85037016        1.38111202        1.41247746
 C            2.55800974       -1.69385537        1.04538814
 C            3.32913951       -0.47827242        0.88189705
 C            1.61935166       -2.00468167        0.06511435
 C           -0.12642683       -2.21828251        1.76293181
 C            0.26241659       -2.14295013        0.41423740
 C           -1.88547017       -1.39950999        3.27829115
 C           -1.47973567       -2.13573068        2.09081257
 C           -1.99542719        0.90052578        2.91994557
 C           -2.75559350       -0.33249789        2.83168156
 C           -0.49869673        2.01236619        1.37947448
 C           -1.79708510        1.62923208        1.74877595
 C           -0.30309915        2.70226496        0.18772024
 C            2.00733885        1.87564233        0.11198961
 C            0.99268627        2.63771275       -0.46340852
 C            3.49834105       -0.00385079       -0.40176297
 C            3.00564902        1.32971896       -0.70013732
 C            1.96289204       -1.70944112       -1.25621309
 C            3.02944702       -0.83368664       -1.49301330
 C            1.06308430       -2.01086736       -2.27299100
 C           -0.71881607       -2.15919473       -0.59042396
 C           -0.33367365       -2.20369791       -1.93110098
 C           -2.44723459       -1.82558647        1.05576137
 C           -3.26632966       -0.71127586        1.53088900
 C           -2.04757020       -1.85063598       -0.27732920
 C           -2.79179049        1.55085463        0.77101044
 C           -3.54969521        0.31219326        0.64022294
 C           -1.32330767        2.65469513       -0.84821992
 C           -2.54731678        2.07129930       -0.56393219
 C            0.76141635        2.58998533       -1.90322038
 C           -0.66008700        2.36210802       -2.11255880
 C            2.88268934        1.39938754       -2.14847360
 C            3.01831650        0.03958971       -2.65274803
 C            1.68440867        1.96886615       -2.73181116
 C            1.11398980       -1.28832740       -3.53603857
 C            2.01594661       -0.16270636       -3.67383854
 C            1.21011398        1.04801965       -3.74920022
 C           -1.13483183       -1.50232464       -2.92618256
 C           -1.09394001        1.29852610       -2.91268125
 C           -0.22328535       -0.80245683       -3.81057292
 C           -0.18653533        0.64901817       -3.74759687
 C           -2.82844076       -1.16960827       -1.21073162
 C           -3.59035244       -0.01926869       -0.76714516
 C           -3.11143169        1.13164921       -1.51284495
 C           -2.26246787       -0.82344976       -2.49783075
 C           -2.27466893        0.63189665       -2.58907990
