56
Modified xyz file
 C            1.49560379        0.06593400        3.90178706
 C            0.70644281       -1.15129171        3.88245532
 C            1.37746371       -2.10934470        3.01844983
 C            2.56455135       -0.08228715        2.92959925
 C            2.51430370       -1.43451813        2.40661396
 C            2.47956964        1.03021752        1.99752785
 C            0.64151060        1.14917320        3.45063470
 C            1.31515761        1.81936929        2.35517238
 C           -0.67187967       -0.78790957        3.59114003
 C           -0.68406376        0.61305234        3.20383342
 C           -1.45840807       -1.68569201        2.88601950
 C            0.59886928       -2.97980796        2.26340693
 C           -0.84822351       -2.91167707        2.39375875
 C            0.90593018       -3.19716436        0.85589404
 C            2.79229437       -1.63029993        1.06046965
 C            1.98916343       -2.55793394        0.27601683
 C            2.73075748        0.80883917        0.64440399
 C            3.07350701       -0.47821166        0.21519308
 C            2.22502733        1.72054894       -0.28868363
 C            0.54359410        2.32406931        1.31975453
 C            1.16687044        2.55788455        0.09755355
 C           -1.33761535        1.00560032        2.03783391
 C           -0.83639703        2.10108878        1.33586851
 C           -2.34023030       -1.18843248        1.84197777
 C           -2.22504212        0.13131882        1.39826876
 C           -1.42724866       -3.20393292        1.09606481
 C           -0.34816974       -3.26845458        0.12476868
 C           -2.49968185       -2.25387732        0.86547792
 C           -0.50399047       -2.58427663       -1.08211829
 C            1.84744808       -1.99871590       -1.05739130
 C            2.77198630       -0.88270022       -1.14828555
 C            0.58258837       -1.88878494       -1.63918715
 C            2.46924120        1.47450958       -1.64005251
 C            2.53022877        0.09899913       -2.09075209
 C            1.75808757        2.21836827       -2.66188945
 C            0.48478938        3.33194889       -0.83834476
 C            0.78437129        3.20273129       -2.25036156
 C           -1.60979658        2.63863820        0.31634046
 C           -0.95596694        3.43700429       -0.70739804
 C           -2.75936535        0.47929855        0.15038884
 C           -2.57647491        1.77539800       -0.33670084
 C           -2.77151066       -1.90097387       -0.44493028
 C           -1.80442250       -2.26618361       -1.46903160
 C           -3.15284018       -0.53146855       -0.72803109
 C           -2.02309385       -1.38118412       -2.59128021
 C           -2.95824232       -0.35255406       -2.15588765
 C            0.39180014       -0.96296164       -2.67802069
 C            1.41865458       -0.07723948       -3.00650334
 C            1.08341635        1.24640969       -3.51108858
 C           -0.88444919       -0.71413644       -3.17819102
 C           -0.46287896        2.91508851       -2.94166189
 C           -1.54576483        3.09674199       -1.99111447
 C           -2.48065149        2.00839626       -1.77381456
 C           -2.47198715        0.92372565       -2.64109838
 C           -0.31364105        1.63255918       -3.61097993
 C           -1.29119235        0.65510116       -3.45387547
