56
Modified xyz file
 C            1.40043049       -0.06899985        4.57494821
 C            0.58473282       -1.26393392        4.47377696
 C            1.21508109       -2.14341178        3.50780378
 C            2.50330953       -0.20123770        3.63490527
 C            2.28588223       -1.40495067        2.85897713
 C            2.61239613        1.05235392        2.93413562
 C            0.59438255        1.05267794        4.12632291
 C            1.43909651        1.85281461        3.27329835
 C           -0.69942385       -0.88038161        3.91328571
 C           -0.64012183        0.52683847        3.56989673
 C            0.16167112       -2.67762926        2.66911472
 C           -1.00417058       -1.82302535        2.85546093
 C            0.49851310       -3.02252423        1.36873431
 C            2.30859829       -1.36402795        1.45958846
 C            1.68459510       -2.40920628        0.78441384
 C            2.70463277        1.03419842        1.48672888
 C            2.57289583       -0.16191623        0.77467529
 C            0.89010561        2.33242837        2.02262263
 C            1.93606543        2.17245764        1.03854982
 C           -1.03984310        0.91088914        2.28726799
 C           -0.40497351        1.97896804        1.64093773
 C           -1.65656469       -1.35986137        1.71781929
 C           -1.80518401        0.02261451        1.52702979
 C           -0.53768943       -2.96283460        0.35337125
 C           -1.66667282       -2.19095531        0.60009027
 C            1.46733866       -2.31320803       -0.64249848
 C            0.13364096       -2.82276691       -0.92622185
 C            2.29804394       -0.05804788       -0.60225975
 C            1.90717902       -1.19411869       -1.32904337
 C            1.54487365        2.19429344       -0.28210304
 C            2.06138261        1.22352120       -1.12977087
 C           -0.75808570        2.25607516        0.31762084
 C            0.26418581        2.65196959       -0.55143177
 C           -2.38083878        0.47502824        0.33905098
 C           -1.90837222        1.67124210       -0.21699878
 C           -2.44728706       -1.81514333       -0.48060434
 C           -2.99529702       -0.47702424       -0.47365163
 C           -0.57502541       -2.28664243       -1.99891986
 C           -1.93772448       -2.04006106       -1.82468311
 C            1.45341690       -1.05400780       -2.63633431
 C            0.14087792       -1.58886518       -2.97473356
 C            1.82360212        1.38971396       -2.49188262
 C            1.60578767        0.21706401       -3.30719723
 C           -0.03405880        2.94289384       -1.87537401
 C            0.84503393        2.39312764       -2.89588946
 C           -2.33773497        2.08435937       -1.48100600
 C           -1.40052016        2.79293301       -2.33367946
 C           -3.34244778       -0.16131642       -1.84400449
 C           -2.63197761       -1.10676084       -2.69639130
 C           -3.07315045        1.16963242       -2.33343713
 C           -0.52346192       -0.62756731       -3.84531924
 C            0.42192189        0.44300126       -4.12356289
 C            0.01593149        1.82487826       -3.94432085
 C           -1.36884686        2.12125893       -3.62526257
 C           -1.87431423       -0.34333728       -3.66661683
 C           -2.33181792        1.03653003       -3.57722887
