56
Modified xyz file
 C            1.31124845       -0.11758768        3.40456410
 C            2.34196604       -0.30469430        2.40046349
 C            2.18145846       -1.63923009        1.83972357
 C            0.44902770       -1.28567835        3.38669107
 C            1.03630716       -2.26389671        2.49471917
 C           -0.90783346       -0.83856830        3.13247928
 C            0.47285937        1.06081521        3.32775408
 C           -0.89987040        0.61757280        3.10471029
 C            0.95161554        2.16494467        2.64081924
 C            2.67597284        0.75028557        1.55570122
 C            2.10312116        2.01273648        1.75788855
 C            3.28764130        0.45244538        0.34169746
 C            2.41919696       -1.84514650        0.47761767
 C            3.08622888       -0.86220085       -0.24898753
 C            1.69102653       -2.80875800       -0.21786220
 C            0.18810432       -3.07350519        1.75629246
 C            0.63284597       -3.53687529        0.45844812
 C           -1.69777922       -1.53006890        2.21816237
 C           -1.22169951       -2.71539642        1.64270049
 C           -2.77368768       -0.86215448        1.64113354
 C           -1.72513959        1.29186272        2.19999263
 C           -2.74566060        0.59072163        1.56281957
 C           -0.00075077        3.03298480        1.98020007
 C           -1.31697253        2.51057481        1.66092188
 C            1.92546243        2.93116560        0.63807264
 C            0.60366336        3.51313246        0.74890920
 C            3.26951036        1.42914642       -0.73160656
 C            2.38807580        2.57303250       -0.61880144
 C            2.75822564       -0.67148090       -1.65447223
 C            2.95194207        0.73283019       -1.96701038
 C            1.23523415       -2.51806862       -1.56956253
 C            1.67425239       -1.35677695       -2.20020360
 C           -0.51983528       -3.57996743       -0.42552493
 C           -1.67721472       -3.12906127        0.31965353
 C           -0.16854112       -2.89223662       -1.65428464
 C           -3.35333375       -1.36232675        0.40821716
 C           -2.63631717       -2.37514467       -0.33893362
 C           -3.13227513        0.96967023        0.21142527
 C           -3.58403550       -0.22893332       -0.47162808
 C           -1.57577565        2.78955147        0.25573919
 C           -0.34539585        3.30192958       -0.32855071
 C           -2.36831144        1.91007811       -0.47738516
 C            1.45761659        2.53086938       -1.74198384
 C            1.88366720        1.45296505       -2.62815715
 C            0.09414874        2.78446213       -1.54332565
 C            0.82531115       -0.71268891       -3.10502253
 C            0.92832362        0.72714953       -3.32148972
 C           -1.07233338       -2.00469727       -2.23056900
 C           -2.33904207       -1.82821755       -1.65861431
 C           -3.02338844       -0.54439272       -1.76895936
 C           -0.58660208       -1.06838000       -3.13916385
 C           -2.10691547        1.73436327       -1.83939115
 C           -0.84753249        2.21164099       -2.39378626
 C           -0.41606134        1.25988789       -3.40056686
 C           -2.43751253        0.47594071       -2.50098389
 C           -1.34423701        0.14337445       -3.39069016
