56
Modified xyz file
 C            1.50292613        0.06110638        4.12724905
 C            0.68723897       -1.13408494        4.02252531
 C            1.41462131       -2.09498010        3.21465722
 C            2.62344334       -0.08796145        3.21255138
 C            2.58356062       -1.42394151        2.66635082
 C            2.58438418        1.02412296        2.28915002
 C            0.70336320        1.18529517        3.66782594
 C            1.45290141        1.86886414        2.63870487
 C           -0.64215949       -0.73136702        3.59680625
 C           -0.61533973        0.69896151        3.32757330
 C           -1.35025602       -1.55494043        2.73152232
 C            0.72190491       -2.74261701        2.11516735
 C           -0.65848177       -2.62481997        2.01843897
 C            2.54666636       -1.57947071        1.22283102
 C            1.52149682       -2.55954589        0.91427638
 C            2.84004187        0.81893105        0.93577889
 C            2.67729867       -0.46909588        0.38677922
 C            2.62346693        1.92513953        0.12183434
 C            0.76094954        2.47424448        1.59404325
 C            1.50761037        2.79286606        0.46077587
 C           -1.22112393        1.18040985        2.16836367
 C           -0.61147704        2.22432680        1.45039743
 C           -2.28355125       -0.94739098        1.79933432
 C           -2.24036850        0.42320518        1.57826909
 C           -1.27090379       -2.74148083        0.70795927
 C           -2.40565631       -1.83575226        0.65749608
 C            0.88440632       -2.48220538       -0.32108816
 C           -0.46536498       -2.84694229       -0.41900266
 C            2.28648569       -0.61461240       -0.95103711
 C            1.45701276       -1.68237123       -1.31553335
 C            2.64641480        1.76593740       -1.31379989
 C            2.48706315        0.43326412       -1.84502467
 C            0.83954143        3.17102250       -0.77291568
 C            1.58713567        2.59282466       -1.87396598
 C           -1.28821458        2.79623395        0.37506069
 C           -0.54556543        3.16095828       -0.82065821
 C           -2.91790747        0.91966199        0.47309962
 C           -2.54443145        2.21459742       -0.05418353
 C           -2.77976953       -1.31097531       -0.57927684
 C           -3.17903263        0.03011323       -0.65208482
 C           -1.10057160       -2.74766117       -1.65109705
 C           -2.32686546       -1.96279077       -1.72831979
 C            0.96057734       -1.76231979       -2.61576019
 C           -0.30355712       -2.43922431       -2.82029412
 C            1.63152004        0.54949079       -3.01070258
 C            0.88521071        1.79236598       -2.86199919
 C            0.96709949       -0.57791183       -3.46127844
 C           -1.22162116        2.56050204       -1.96333327
 C           -2.52698285        2.12173326       -1.50514848
 C           -2.98711807        0.79847952       -1.87879128
 C           -0.51092515        1.76304280       -2.86364307
 C           -2.32286461       -1.25777149       -2.99621520
 C           -1.11400217       -1.62760721       -3.71133718
 C           -0.37406918       -0.41063041       -3.98752653
 C           -2.41318494        0.18709905       -2.98271553
 C           -1.16297584        0.71567250       -3.51808913
