56
Modified xyz file
 C            1.74069757       -0.00000000        3.68878060
 C            0.88760195       -1.17050682        3.59831860
 C            1.24050078       -1.89666087        2.38659830
 C            2.60612094       -0.00000000        2.52666253
 C            2.39657224       -1.23999619        1.80321687
 C            2.39657224        1.23999619        1.80321687
 C            0.88760195        1.17050682        3.59831860
 C            1.24050078        1.89666087        2.38659830
 C           -0.48414313       -0.72975971        3.76797991
 C           -0.48414313        0.72975971        3.76797991
 C           -1.47535238       -1.41392179        3.07749799
 C            0.22016676       -2.35082927        1.54958306
 C           -1.08428031       -2.36809381        2.04859460
 C            0.45427732       -2.44170135        0.16471364
 C            2.49852300       -1.19567311        0.42255399
 C            1.71413892       -2.06337383       -0.33031136
 C            2.49852300        1.19567311        0.42255399
 C            2.90993830        0.00000000       -0.16355176
 C            1.71413892        2.06337383       -0.33031136
 C            0.22016676        2.35082927        1.54958306
 C            0.45427732        2.44170135        0.16471364
 C           -1.47535238        1.41392179        3.07749799
 C           -1.08428031        2.36809381        2.04859460
 C           -2.63938591       -0.69500399        2.58418828
 C           -2.63938591        0.69500399        2.58418828
 C           -2.19521213       -2.48851504        1.13373010
 C           -3.13156667       -1.41209303        1.41833303
 C           -0.61682248       -2.66229052       -0.72406914
 C           -1.91673246       -2.47069163       -0.28037799
 C           -0.42248033       -2.46168031       -2.08341532
 C            2.00111039       -2.17791001       -1.68869044
 C            0.92015012       -2.43848852       -2.61035477
 C            3.21075032       -0.00000000       -1.51934919
 C            2.86052621       -1.17448917       -2.29962160
 C            2.00111039        2.17791001       -1.68869044
 C            2.86052621        1.17448917       -2.29962160
 C            0.92015012        2.43848852       -2.61035477
 C           -0.61682248        2.66229052       -0.72406914
 C           -0.42248033        2.46168031       -2.08341532
 C           -2.19521213        2.48851504        1.13373010
 C           -3.13156667        1.41209303        1.41833303
 C           -1.91673246        2.47069163       -0.28037799
 C           -3.37627310       -0.69198642        0.17700978
 C           -2.68934301       -1.39879584       -0.88797899
 C           -3.37627310        0.69198642        0.17700978
 C           -2.68934301        1.39879584       -0.88797899
 C           -1.18339551       -1.39928976       -2.72502565
 C           -1.18339551        1.39928976       -2.72502565
 C           -2.12089633       -0.70283378       -1.95768022
 C           -2.12089633        0.70283378       -1.95768022
 C            0.96771302       -1.43272622       -3.65945693
 C            2.22816495       -0.72526955       -3.53012232
 C            2.22816495        0.72526955       -3.53012232
 C            0.96771302        1.43272622       -3.65945693
 C           -0.28731548       -0.69361102       -3.62148450
 C           -0.28731548        0.69361102       -3.62148450
