56
Modified xyz file
 C            1.43405023        0.05266964        4.08306381
 C            0.63968450       -1.15057261        3.90188014
 C            1.42288393       -2.08032515        3.12541603
 C            2.57951141       -0.04193646        3.19411066
 C            2.63526222       -1.39280032        2.69318528
 C            2.48306107        1.03814284        2.23710311
 C            0.62885417        1.18468373        3.65153975
 C            1.33379723        1.85732996        2.59321623
 C           -0.65300915       -0.74996859        3.38998288
 C           -0.69509058        0.70392658        3.36034507
 C           -1.23812637       -1.44236696        2.32767342
 C            0.82750422       -2.66832192        1.93969482
 C           -0.43947304       -2.25742579        1.50576927
 C            2.74704695       -1.59770439        1.26078708
 C            1.90231562       -2.73912417        0.97030640
 C            2.72957900        0.80765465        0.88246647
 C            2.72360296       -0.50681259        0.38108839
 C            2.41990358        1.85802201        0.02816682
 C            0.61064129        2.42991264        1.55345667
 C            1.36357050        2.77039962        0.43787808
 C           -1.41933544        1.29400923        2.33298668
 C           -0.75847192        2.11533570        1.39108909
 C           -2.38728732       -0.86827804        1.79492848
 C           -2.53228502        0.57304118        1.92638603
 C           -2.80060883       -1.20741343        0.45028998
 C           -0.76768981       -2.44335563        0.15221272
 C           -1.86833192       -1.78076843       -0.40804637
 C            1.56676247       -2.96758760       -0.34605952
 C            0.15907034       -3.07743157       -0.67416491
 C            2.40432765       -0.75532075       -0.96540048
 C            2.11329508       -2.07124226       -1.34206709
 C            2.25598440        1.61342530       -1.38742476
 C            2.14191538        0.30769113       -1.84451694
 C            0.70319128        3.25498295       -0.74579854
 C            1.33675549        2.62274885       -1.89185852
 C           -1.42848606        2.49361332        0.20483811
 C           -0.72076631        3.05558190       -0.85934517
 C           -3.31228286        1.04626482        0.81396647
 C           -3.63264400       -0.10926220       -0.00870921
 C           -2.72692694        2.04732869       -0.04541032
 C           -3.53676145        0.30522730       -1.38837965
 C           -3.10287920        1.69486610       -1.40472866
 C           -1.92927933       -1.52098081       -1.79053784
 C           -2.65434777       -0.42831511       -2.26769828
 C            0.07455483       -2.90007228       -2.10823248
 C            1.34755802       -2.33597570       -2.54240497
 C           -0.97722674       -2.06756265       -2.64519577
 C            1.47531002        0.09109135       -3.05464614
 C            1.06562489       -1.24219627       -3.43928961
 C           -0.37186622       -1.20756745       -3.64925044
 C            0.28825286        2.22074461       -2.81256672
 C           -0.98537122        2.60322595       -2.21828014
 C           -2.11937798        1.84036031       -2.46576114
 C           -1.98532980        0.54439907       -3.11519889
 C            0.40798316        0.99567219       -3.45689591
 C           -0.77859951        0.18833753       -3.70595946
