56
Modified xyz file
 C            1.62823556       -0.00649624        4.26990449
 C            0.79858217       -1.19157956        4.37898087
 C            1.29841823       -2.15522522        3.42237855
 C            2.51446304       -0.17620187        3.12678067
 C            2.31019071       -1.50490825        2.60177292
 C            2.31079876        0.94812045        2.23997701
 C            0.75367953        1.10553738        3.96391349
 C            1.38846830        1.86051331        2.90335109
 C           -0.55016484       -0.84108967        3.95931321
 C           -0.58147121        0.58548321        3.71026602
 C            0.14629596       -2.71450498        2.74075747
 C           -0.92394632       -1.73643785        2.88029324
 C            0.36942123       -3.24265497        1.48312779
 C            2.23065953       -1.69572683        1.22552303
 C            1.60926678       -2.87204878        0.82361163
 C            2.16594780        0.72251725        0.86843152
 C            2.20608718       -0.58352722        0.35602507
 C            1.63748115        1.74986844        0.08481033
 C            0.56263730        2.62365191        2.10062495
 C            0.92214916        2.77235716        0.71036920
 C           -1.25611677        1.06285107        2.58900281
 C           -0.85688412        2.30281697        2.09293446
 C           -1.50432417       -1.19595458        1.73074625
 C           -1.87418149        0.15483390        1.71692724
 C           -0.65114033       -3.06016309        0.47347724
 C           -1.44724567       -1.91879951        0.52987303
 C            1.41902831       -3.11905191       -0.58145272
 C           -0.00049633       -3.39238627       -0.77175525
 C            1.99809534       -0.78038168       -1.02097194
 C            1.76227504       -2.06783770       -1.50856023
 C            1.48633372        1.57618972       -1.29165960
 C            1.69587334        0.30782726       -1.85254467
 C            0.77468936        2.55623370       -1.99376143
 C           -0.26430510        3.29074934        0.06259775
 C           -1.39336727        2.77844904        0.82843145
 C           -0.30529200        3.24587636       -1.31810911
 C           -2.57734107        0.64477478        0.61935378
 C           -2.36216762        2.01845666        0.18727579
 C           -1.93037694       -1.34616224       -0.65645456
 C           -2.68615446       -0.17985047       -0.57104931
 C           -0.40017108       -2.68413000       -1.96442130
 C            0.82758386       -2.23419280       -2.59939761
 C           -1.47522760       -1.79928839       -1.90901934
 C            1.34659865        0.05437189       -3.18807635
 C            0.72666098       -1.21605918       -3.52453316
 C            0.31133266        2.31193046       -3.34225436
 C            0.66062303        1.06469400       -3.97424614
 C           -1.52596290        2.81845176       -1.97726888
 C           -2.44596668        2.05281685       -1.26437803
 C           -2.78684801        0.70820340       -1.71520668
 C           -1.14446731        2.41471596       -3.31944511
 C           -1.70334126       -1.03293886       -3.05417512
 C           -0.60528673       -0.89639799       -3.99855052
 C           -0.57153538        0.47215875       -4.47216680
 C           -2.35967132        0.25999421       -2.95648102
 C           -1.67842273        1.17955094       -3.85489311
