56
Modified xyz file
 C            1.46877551       -0.11713679        4.15970699
 C            0.66717627       -1.31723871        4.02030061
 C            1.52247230       -2.32828708        3.43451192
 C            2.63563852       -0.27394856        3.30487891
 C            2.66475473       -1.64454491        2.84398847
 C            2.59117664        0.78068604        2.31394457
 C            0.69219161        0.99470337        3.64008718
 C            1.51573471        1.69047459        2.67528466
 C           -0.56677987       -0.95396501        3.33578234
 C           -0.58347954        0.48901752        3.17892356
 C           -1.04188706       -1.74083089        2.28925522
 C            0.96104489       -3.18292368        2.41297446
 C           -0.39874542       -2.94203160        1.96630798
 C            2.63102515       -1.89806295        1.41251114
 C            1.80151084       -3.06803935        1.22999256
 C            2.75546732        0.47534502        0.96351197
 C            2.49363984       -0.83038503        0.52282989
 C            2.55868744        1.52830128        0.07991770
 C            0.88173816        2.35712843        1.63360593
 C            1.64811803        2.58232468        0.49531022
 C           -1.09734802        1.02574823        2.00433180
 C           -0.49634971        2.16981190        1.47061474
 C           -1.89756864       -1.16501196        1.34588532
 C           -1.90012251        0.23116399        1.17977272
 C           -2.37365940       -1.98535391        0.32667872
 C           -0.41695569       -3.38752654        0.58743730
 C            0.91693080       -3.11437561        0.08292650
 C           -1.48768888       -3.00615376       -0.19986815
 C            1.86536261       -1.03877233       -0.71759319
 C            1.04897032       -2.16337708       -0.92371047
 C            2.28370356        1.25179435       -1.31430767
 C            1.90260008       -0.03256284       -1.68749193
 C            1.01475465        3.12327298       -0.69184032
 C            1.55888896        2.40169288       -1.83619534
 C           -1.13964885        2.81893335        0.42263587
 C           -0.34101581        3.41531632       -0.63721816
 C           -2.53070601        0.82638446        0.07668506
 C           -2.27425628        2.16686845       -0.20632551
 C           -3.05811216       -1.39978308       -0.80616279
 C           -3.11952424        0.03927779       -0.91098779
 C           -1.21962755       -2.61284231       -1.57043263
 C            0.04251447       -2.10839438       -1.88915142
 C           -2.40137117       -1.89526692       -2.00840336
 C            1.21218830       -0.21111508       -2.88470693
 C            0.17691975       -1.22362483       -2.95349123
 C            0.80362721        2.25817331       -2.99404576
 C            0.74210523        0.95183159       -3.62354946
 C           -1.12501848        3.38630335       -1.85771356
 C           -2.33732794        2.63080102       -1.58493346
 C           -0.52381750        2.84997810       -3.06520590
 C           -2.90372025        0.36738426       -2.31208513
 C           -2.23888987       -0.77927415       -2.91873257
 C           -1.00825570       -0.60928583       -3.54039238
 C           -0.63611351        0.70825239       -4.01922560
 C           -2.50916924        1.65747467       -2.64932088
 C           -1.43055858        1.85167085       -3.60750273
