56
Modified xyz file
 C            1.56185585       -0.26960176        4.11679961
 C            0.71336318       -1.44528566        4.11854945
 C            1.13460859       -2.29713069        3.01906612
 C            2.50723241       -0.41030567        3.02347968
 C            2.17287874       -1.61085956        2.28494354
 C            2.51534894        0.84191729        2.29598121
 C            0.72606963        0.87968263        3.81448325
 C            1.39040280        1.63711992        2.77474805
 C           -0.64306936       -1.01237978        3.82969250
 C           -0.61695615        0.40736994        3.54997685
 C           -0.05280808       -2.68165035        2.29456284
 C           -1.16463718       -1.88812553        2.80310926
 C            0.02336229       -2.85604360        0.91801025
 C            2.05407506       -1.50782713        0.90242614
 C            1.09484450       -2.27130714        0.21509050
 C            2.73917995        0.81094082        0.92318003
 C            2.65346948       -0.42134929        0.26111731
 C            2.41623423        1.96755709        0.22153951
 C            0.61389198        2.29426040        1.82395977
 C            1.27742102        2.74030798        0.68407158
 C           -1.25679910        0.85978104        2.40111125
 C           -0.74975125        1.98354164        1.73393638
 C           -2.05842719       -1.36984417        1.86937668
 C           -2.17771062        0.02260505        1.75454636
 C           -1.19914759       -2.99184926        0.27668943
 C           -2.29197702       -2.15788092        0.74424024
 C           -1.24288846       -3.02997306       -1.16325314
 C            1.07520478       -2.22417664       -1.18984956
 C           -0.06493871       -2.61933644       -1.89260218
 C            2.78546973       -0.46441815       -1.12125415
 C            2.03726844       -1.46703379       -1.85759005
 C            2.39440089        1.94876314       -1.22833701
 C            2.73518386        0.77314372       -1.88311397
 C            0.52289989        3.17220086       -0.47948781
 C            1.23997261        2.72692024       -1.66561253
 C           -1.51847363        2.57798187        0.73625041
 C           -0.86394719        3.11875714       -0.44454725
 C           -2.97733063        0.55485443        0.74585364
 C           -2.73341164        1.91521372        0.30221438
 C           -2.95322508       -1.59516518       -0.42066475
 C           -2.35117107       -2.19224401       -1.59941693
 C           -3.26496471       -0.24496518       -0.43340130
 C           -0.53163842       -1.81937228       -3.01394916
 C           -1.85486858       -1.32853099       -2.65634899
 C            1.72699664       -0.91161381       -3.16746350
 C            2.15102372        0.47896163       -3.17845799
 C            0.35862656       -0.96862181       -3.65074377
 C            0.53056830        2.35152622       -2.80218728
 C            1.03897727        1.28419995       -3.64818577
 C           -0.06649115        0.38823681       -3.94802465
 C           -1.60295765        2.67150568       -1.61692615
 C           -2.75712761        1.92508100       -1.15249450
 C           -2.93538894        0.55632909       -1.60415795
 C           -2.08828703        0.04482359       -2.58928623
 C           -0.91507965        2.21075486       -2.73374406
 C           -1.25735764        0.91255408       -3.29790560
