56
Modified xyz file
 C            1.46621750        0.00683901        4.15518344
 C            0.67541784       -1.20519642        4.04110378
 C            1.43764013       -2.15631561        3.25487820
 C            2.60369112       -0.12118217        3.25837266
 C            2.62455252       -1.47448639        2.75898120
 C            2.53374284        0.96082730        2.29711865
 C            0.65166459        1.11276495        3.68131389
 C            1.38793396        1.79214828        2.63887104
 C           -0.65261242       -0.83148592        3.58729519
 C           -0.66304045        0.60508748        3.35314340
 C           -1.31600270       -1.65535464        2.68705862
 C            0.79298052       -2.80646789        2.12507704
 C           -0.57745776       -2.68069288        1.95499596
 C            2.67710835       -1.67277253        1.32537689
 C            1.65783991       -2.64758001        0.96986331
 C            2.79928436        0.72525576        0.94562847
 C            2.89592963       -0.59521143        0.46559169
 C            2.47559685        1.75930148        0.06684682
 C            0.67822812        2.37555049        1.59583584
 C            1.39106071        2.65385234        0.43444705
 C           -1.29467120        1.09819631        2.21329601
 C           -0.70227541        2.15571249        1.50371417
 C           -2.25989436       -1.05652281        1.76041972
 C           -2.29104404        0.32367963        1.60785212
 C           -1.12156123       -2.73846177        0.61061265
 C           -2.30090006       -1.88935633        0.57209327
 C            1.11176500       -2.59234295       -0.31276197
 C           -0.27056864       -2.75717002       -0.49275541
 C            2.73870762       -0.85342066       -0.89533331
 C            1.86388937       -1.94571842       -1.29272318
 C            2.39027284        1.52118615       -1.36164681
 C            2.54906410        0.23182505       -1.83980251
 C            0.68653553        3.03745299       -0.77588368
 C            1.33382086        2.37053416       -1.89536002
 C           -1.40857077        2.75121362        0.46091811
 C           -0.69638868        3.15403954       -0.74243340
 C           -2.98794486        0.83376008        0.52059730
 C           -2.66916042        2.16580069        0.05163984
 C           -2.67570963       -1.31946674       -0.64215423
 C           -3.19096383       -0.01865808       -0.64444660
 C           -0.84203306       -2.52548273       -1.74363957
 C           -2.13295966       -1.85439458       -1.80914446
 C            1.26783159       -1.60560100       -2.57012499
 C            1.69487030       -0.25357991       -2.91371941
 C           -0.02885061       -2.01933160       -2.83512669
 C            0.57492850        1.93742202       -2.97744138
 C            0.81586907        0.62065825       -3.54671193
 C           -1.48608230        2.74690801       -1.89513481
 C           -2.71911213        2.15823843       -1.40081704
 C           -3.09212123        0.82097482       -1.83294156
 C           -0.86004762        2.18044677       -3.00102934
 C           -2.18043627       -1.09647100       -3.04634017
 C           -0.88156044       -1.21196704       -3.69104181
 C           -0.44637975        0.12084013       -4.06362335
 C           -2.53755363        0.30763171       -2.99830448
 C           -1.49054062        1.05654362       -3.67768424
