56
Modified xyz file
C          1.09892        0.05210        3.74818
C          2.24804       -0.28200        3.16017
C          2.33565       -1.70091        2.99820
C          0.29953       -1.10771        4.01131
C          0.94094       -2.17846        3.20721
C         -1.06325       -0.65000        3.77253
C          0.35411        1.10802        3.32061
C         -1.04493        0.78494        3.57597
C          0.76223        1.83427        2.17156
C          2.73865        0.40272        2.07646
C          1.98710        1.46661        1.49894
C          3.03832       -1.85963        1.73785
C          3.48258       -0.54301        1.28365
C          2.39612       -2.52421        0.60827
C          0.19798       -2.48530        1.90259
C          1.03100       -3.23158        0.77616
C         -1.87727       -1.21381        2.69817
C         -1.39167       -2.46868        1.95819
C         -2.02958        1.15721        2.58826
C         -2.62932       -0.08048        2.06071
C         -0.23803        2.47014        1.43129
C         -1.67939        2.22258        1.65924
C         -0.04999        2.89491        0.15012
C          2.12145        1.76117        0.08890
C          1.13607        2.60039       -0.56144
C          3.37091       -0.43712       -0.13722
C          2.73159       -1.70153       -0.58015
C          2.87517        0.82999       -0.74866
C          1.85309       -1.65887       -1.74744
C          0.24804       -3.21148       -0.52925
C          0.67269       -2.41360       -1.70839
C         -1.95650       -2.49120        0.55951
C         -1.21175       -3.09199       -0.54346
C         -3.24862       -0.15010        0.67244
C         -2.84142       -1.43766       -0.03625
C         -2.34145        2.34627        0.36535
C         -1.37061        3.05751       -0.49457
C         -3.26285        1.21556       -0.18115
C         -1.47099        3.03304       -1.94397
C          1.05932        2.67574       -1.96737
C         -0.20241        2.99157       -2.68730
C          2.50632        0.75243       -2.10661
C          1.89349       -0.52603       -2.58380
C          1.74596        1.72770       -2.69661
C         -0.32439        1.91764       -3.63801
C          0.79580       -0.17416       -3.38127
C          0.82371        1.18078       -3.61944
C         -0.44677       -2.01369       -2.44020
C         -1.63377       -2.47619       -1.76094
C         -2.66346       -1.49586       -1.48350
C         -0.43593       -0.85595       -3.23015
C         -3.08602        1.02076       -1.70713
C         -2.35412        2.01086       -2.52731
C         -1.53444        1.30157       -3.46842
C         -2.72640       -0.29447       -2.30094
C         -1.62944       -0.06080       -3.27089

