56
Modified xyz file
 C            1.52909587       -0.12819297        4.14913048
 C            0.71402361       -1.31976694        4.28335246
 C            1.22284110       -2.30020974        3.34516717
 C            2.45471628       -0.34020974        3.04740074
 C            2.19558481       -1.64663166        2.48585619
 C            2.35522332        0.80532554        2.17471985
 C            0.65112698        0.95754742        3.75899623
 C            1.31043954        1.67315998        2.68517758
 C           -0.63771335       -0.98949810        3.85817949
 C           -0.65819296        0.40359373        3.47625343
 C            0.07479431       -2.90584930        2.70910897
 C           -1.03590618       -1.97115902        2.87493563
 C            0.26690367       -3.44580338        1.45027789
 C            2.04767112       -1.78249723        1.10387481
 C            1.34937197       -2.89538700        0.63718644
 C            2.39691952        0.61762270        0.79963310
 C            2.19830003       -0.66731696        0.26123791
 C            2.06854941        1.71924317        0.01509021
 C            0.51369748        2.29627757        1.73426313
 C            1.11777410        2.61884670        0.52195327
 C           -1.25441395        0.77475285        2.27633110
 C           -0.84950639        1.98212787        1.71531463
 C           -1.74130142       -1.55857221        1.74182261
 C           -1.83906262       -0.18948649        1.43680138
 C           -0.89280452       -3.52931843        0.59152018
 C           -1.90041443       -2.49342976        0.72414429
 C            0.93029514       -2.94969542       -0.75064796
 C           -0.41427167       -3.49701044       -0.77244498
 C            1.95411859       -0.79812317       -1.11769090
 C            1.21897475       -1.88788930       -1.60187947
 C            2.28833836        1.61449639       -1.35061524
 C            2.18461199        0.29935480       -1.95165822
 C            1.70710529        2.58228221       -2.25938665
 C            0.41149496        3.46380102       -0.32874943
 C            0.73219051        3.51523445       -1.74086132
 C           -1.63541538        2.51449877        0.70466370
 C           -1.03173907        3.47529024       -0.20275279
 C           -2.34194586        0.22082179        0.18846890
 C           -2.42782637        1.59021851       -0.08722893
 C           -2.24230573       -2.05401209       -0.61401825
 C           -1.41094756       -2.80149336       -1.55560271
 C           -2.49503303       -0.70569478       -0.85274843
 C            0.42545338       -1.73828694       -2.74372988
 C           -0.97340707       -2.14841439       -2.69450999
 C            1.43749049        0.44254045       -3.19302465
 C            1.08923431        1.84787016       -3.34870196
 C            0.50248838       -0.52274341       -3.53281951
 C           -0.50746792        3.33369147       -2.48211255
 C           -1.59487069        3.26241361       -1.52257764
 C           -2.40908435        2.06108989       -1.46454366
 C           -0.31323447        2.23267149       -3.40729072
 C           -2.51008431       -0.27108432       -2.17995085
 C           -1.75941309       -1.02838981       -3.16337725
 C           -0.85972457       -0.11102018       -3.83668520
 C           -2.33172050        1.13401376       -2.49175678
 C           -1.28102177        1.23840003       -3.50349579
