56
Modified xyz file
 C            1.57224639       -0.05511174        4.26929691
 C            0.71755083       -1.22531630        4.33269784
 C            1.22344135       -2.18517015        3.37246788
 C            2.50593310       -0.23576372        3.16785475
 C            2.27104049       -1.54367578        2.59352402
 C            2.39694636        0.92416769        2.30439579
 C            0.73312437        1.07463091        3.92796883
 C            1.43854857        1.83431798        2.91712206
 C           -0.61197312       -0.83781213        3.88513460
 C           -0.59106993        0.57657959        3.58932372
 C            0.07919504       -2.71043670        2.65499445
 C           -1.00068398       -1.74925599        2.83309982
 C            0.30206574       -3.18987407        1.37436054
 C            2.22392946       -1.67576699        1.20801216
 C            1.51173248       -2.75783046        0.68963147
 C            2.35629878        0.73786217        0.92071733
 C            2.45304264       -0.55733670        0.39357766
 C            1.87924040        1.78267484        0.11746102
 C            0.66975547        2.60870069        2.06998081
 C            1.13752146        2.79813166        0.71609727
 C           -1.17806656        1.04173957        2.41274661
 C           -0.74292810        2.27556505        1.94279215
 C           -1.63416711       -1.25015971        1.69779623
 C           -1.75115550        0.13854851        1.50145058
 C           -0.76703639       -3.07037116        0.40304791
 C           -1.75149919       -2.10289471        0.60245435
 C            1.25549068       -2.83823867       -0.73911937
 C           -0.14689580       -3.19365170       -0.90564112
 C            2.46493294       -0.72288451       -0.98871247
 C            1.82908981       -1.89315228       -1.57624622
 C            1.80649885        1.62807526       -1.27124507
 C            2.17814257        0.41394904       -1.84552389
 C            1.07511926        2.54996834       -2.02841030
 C            0.00178212        3.33474320        0.00416543
 C           -1.16479905        2.72928933        0.63298422
 C            0.05774736        3.36195634       -1.37572035
 C           -2.27115907        0.61567268        0.28491120
 C           -2.00141398        1.92634126       -0.13614256
 C           -2.52075287       -1.70034831       -0.47887636
 C           -2.84520863       -0.29205731       -0.60632058
 C           -0.84903812       -2.74226697       -2.01459612
 C           -2.17887878       -2.20052041       -1.80064349
 C            1.12177226       -1.46929720       -2.77377610
 C            1.47726443       -0.08340550       -3.02382428
 C           -0.18225550       -1.90095635       -2.99883505
 C            0.54454262        2.14994217       -3.32225504
 C            0.58656936        0.74748673       -3.69050708
 C           -1.18106176        3.14237167       -2.09320248
 C           -2.17882877        2.28404728       -1.47495267
 C           -0.83945855        2.58860000       -3.38931665
 C           -2.91109059        0.01730181       -2.02651885
 C           -2.38806419       -1.12864650       -2.75375365
 C           -1.16972111       -0.97531580       -3.53489053
 C           -0.78393684        0.30397104       -3.91903201
 C           -2.56497136        1.28692511       -2.45736256
 C           -1.66445037        1.41395788       -3.59464275
