56
Modified xyz file
 C            1.14291266        0.00669478        4.00732892
 C            2.36438103       -0.34436784        3.33150182
 C            2.23310837       -1.74121853        2.94519062
 C            0.29902010       -1.18118719        3.98502114
 C            0.81196169       -2.00294331        2.91256765
 C           -1.06070358       -0.71752929        3.89460987
 C            0.33587144        1.06797158        3.44972539
 C           -0.99950869        0.73640089        3.89249161
 C            0.53513554        1.46234534        2.11721348
 C            2.70451008        0.36898246        2.11960938
 C            1.72213794        1.11071257        1.45027040
 C            2.97642672       -1.89937341        1.72346482
 C            3.48399429       -0.58185621        1.36510739
 C            2.27240621       -2.37580564        0.55373025
 C            0.14904615       -2.01966945        1.67519094
 C            0.87563892       -2.29983454        0.50726961
 C           -1.83053348       -1.08085766        2.72472948
 C           -1.17522027       -1.55612741        1.58109202
 C           -2.10716020        1.19132962        3.09479440
 C           -2.77232385        0.00217346        2.57964398
 C           -0.53225901        2.02012161        1.39609284
 C           -1.82304110        2.00978556        1.93707601
 C           -0.39140946        2.27697881        0.02914556
 C            1.82087362        1.28134724        0.05822619
 C            0.80819684        1.97517706       -0.62161695
 C            3.42795815       -0.50435145       -0.07234838
 C            3.02438427       -1.81791280       -0.54630319
 C            2.82524258        0.59858083       -0.66128102
 C            2.46780659       -1.88605721       -1.80911054
 C            0.26265302       -2.17226332       -0.74267188
 C            1.05427787       -2.21577461       -1.89963677
 C           -1.75288034       -1.33655792        0.31825521
 C           -1.07037557       -1.76152407       -0.83181570
 C           -3.21566617        0.33145251        1.24905350
 C           -2.93317411        1.74363577        1.05188829
 C           -2.90720961       -0.53175990        0.20681057
 C           -1.52794591        2.60153653       -0.72586381
 C           -2.83978842        2.18906573       -0.25272241
 C           -1.51960730        2.41428318       -2.16864585
 C            0.89928107        2.18022892       -1.99860078
 C           -0.31018030        2.17091506       -2.79922597
 C            2.77693702        0.56556417       -2.04985907
 C            2.67460117       -0.74127692       -2.67836334
 C            1.89795328        1.46440666       -2.75692172
 C            0.56200995       -1.63433007       -3.13914163
 C           -0.19483634        1.05477613       -3.73081012
 C            1.56965006       -0.69825126       -3.61371510
 C            1.20795917        0.69565169       -3.78581206
 C           -1.63751302       -1.57890744       -2.09333464
 C           -0.77633252       -1.28595328       -3.22311755
 C           -1.14728614        0.03840084       -3.70833215
 C           -3.33554617       -0.11053284       -1.04646171
 C           -3.38894697        1.32313597       -1.28107167
 C           -2.67456139        1.59821373       -2.51055614
 C           -2.79809660       -0.73123520       -2.23235685
 C           -2.46422931        0.32759005       -3.17740433
