56
Modified xyz file
 C            1.32406893       -0.03803253        4.20706816
 C            0.49050844       -1.18619837        3.88590461
 C            1.31174522       -2.12243883        3.16083124
 C            2.51473837       -0.12276444        3.38092887
 C            2.59125677       -1.47505590        2.88676252
 C            2.46955482        0.96064761        2.41765336
 C            0.59391668        1.15064945        3.80831652
 C            1.34454696        1.82040481        2.76220516
 C           -0.71424866       -0.68737830        3.25270476
 C           -0.75959880        0.74349471        3.50649088
 C           -1.10855520       -1.16553001        1.99544323
 C            0.82473686       -2.64175568        1.89787383
 C           -0.35009938       -2.13953458        1.32868268
 C            2.86737374       -1.67896242        1.47973510
 C            1.99860383       -2.76290692        1.06002056
 C            2.74084716        0.71631411        1.07081415
 C            3.03243464       -0.58527591        0.62377036
 C            2.36199102        1.69862672        0.15835195
 C            0.63848207        2.44905171        1.73556600
 C            1.25921881        2.58559335        0.49704304
 C           -1.47356543        1.52488543        2.62037676
 C           -0.75545322        2.50651106        1.81231963
 C           -2.06470258       -0.43548534        1.28413401
 C           -2.37399146        0.85620552        1.71032677
 C           -2.42826714       -0.82004082       -0.00934639
 C           -0.56748880       -2.36504455       -0.03399271
 C           -1.67018863       -1.79400083       -0.67660165
 C            1.81166492       -2.95618273       -0.29496950
 C            0.45157619       -2.94061037       -0.80401890
 C            3.07703411       -0.85434212       -0.74563248
 C            2.60382981       -2.14934736       -1.20650498
 C            2.27950540        1.39921124       -1.25945559
 C            2.62889720        0.14160474       -1.70617638
 C            0.46695295        2.79298571       -0.70648503
 C            1.08369410        2.03326378       -1.78351634
 C           -1.55011178        2.71452601        0.60514366
 C           -2.72221698        1.85175339        0.72355946
 C           -0.92176876        2.85748220       -0.63461303
 C           -3.32479326       -0.00398657       -0.71296795
 C           -3.34977599        1.42154893       -0.42822440
 C           -3.48090779       -0.14656454       -2.14701710
 C           -1.78140005       -1.95953697       -2.06104641
 C           -2.63887746       -1.08825061       -2.84048036
 C            0.54544711       -2.62472399       -2.21845219
 C            1.81374674       -1.94252122       -2.40669873
 C            1.79271862       -0.51813793       -2.69659915
 C           -0.56772661       -2.09110025       -2.83843619
 C            0.26466917        1.36453440       -2.69074937
 C           -1.77030872       -0.33329476       -3.73880742
 C            0.58395159        0.05567634       -3.09566529
 C           -0.42321039       -0.81756429       -3.51892451
 C           -1.65532101        2.60570326       -1.79488071
 C           -3.00653465        2.09317097       -1.66110489
 C           -3.25209518        1.15991001       -2.74452715
 C           -1.02002659        1.87416193       -2.88336620
 C           -2.03647776        1.06865174       -3.53276624
