56
Modified xyz file
 C            1.57870467        0.15934652        4.17728397
 C            0.75433741       -1.03249575        4.09656406
 C            1.46613337       -1.99957657        3.28366225
 C            2.63556909        0.03201479        3.18622759
 C            2.60256586       -1.31985782        2.67871946
 C            2.49031842        1.12728943        2.24623829
 C            0.75719012        1.29255856        3.79255917
 C            1.48036222        2.02899058        2.77607574
 C           -0.58320259       -0.62992563        3.69268664
 C           -0.57252467        0.80629020        3.46367404
 C           -1.29999195       -1.44021003        2.82418146
 C            0.74532532       -2.68003390        2.22195982
 C           -0.63435053       -2.54646912        2.14304099
 C            2.51574137       -1.51838430        1.24597824
 C            1.52597268       -2.54813700        1.00276262
 C            2.51264567        0.88434886        0.87066433
 C            2.55556201       -0.43166895        0.37589480
 C            2.10782553        1.91649672        0.02051296
 C            0.73574747        2.76595785        1.87016434
 C            1.21915893        2.87695161        0.50683332
 C           -1.21377498        1.33631196        2.34114182
 C           -0.69359070        2.50258678        1.77342305
 C           -2.20060421       -0.82070607        1.86903003
 C           -2.10568604        0.54243497        1.60739697
 C           -1.26797169       -2.70239809        0.84730840
 C           -2.35898869       -1.74725715        0.76071027
 C            0.87240242       -2.54370899       -0.22657461
 C           -0.48172384       -2.89935889       -0.28142721
 C            2.20848097       -0.66583590       -0.95526064
 C            1.42278833       -1.78302316       -1.26447391
 C            2.21793614        1.73764438       -1.35424222
 C            2.31311694        0.38342454       -1.86180742
 C            1.32853744        2.47845303       -2.23414717
 C            0.07803695        3.27474502       -0.30275182
 C           -1.11925587        2.92404965        0.44846170
 C            0.12445765        3.06305010       -1.67400781
 C           -2.66692673        1.02672660        0.42792563
 C           -2.15143752        2.24298121       -0.17753080
 C           -2.71149939       -1.26476081       -0.49793199
 C           -2.99836888        0.09623130       -0.64451094
 C           -1.13370712       -2.84847596       -1.50801767
 C           -2.32390068       -2.01327360       -1.61067240
 C            0.92626664       -1.95224195       -2.55394512
 C           -0.34371697       -2.63263771       -2.70280189
 C            1.61015080        0.32590066       -3.13368594
 C            0.94037848        1.60290868       -3.32491782
 C            0.94191063       -0.83703396       -3.48674485
 C           -1.01722543        2.46703356       -2.35398982
 C           -2.12459052        2.05401524       -1.61963746
 C           -2.75315902        0.77624510       -1.91242642
 C           -0.51029432        1.63316113       -3.43433319
 C           -2.32639907       -1.40105351       -2.92695084
 C           -1.15723271       -1.88217563       -3.64302567
 C           -0.38923518       -0.72544101       -4.06251016
 C           -2.35049357        0.04495824       -3.02247290
 C           -1.17777067        0.46303421       -3.78028328
