56
Modified xyz file
C          1.55397        0.00021        4.27444
C          0.71050       -1.13864        4.08553
C          1.35005       -2.03538        3.27347
C          2.64641       -0.15519        3.32382
C          2.64314       -1.56121        2.87586
C          2.48668        0.92180        2.31778
C          0.74223        1.14264        3.94598
C          1.34494        1.79265        2.75730
C         -0.59938       -0.77783        3.81413
C         -0.66558        0.69498        3.85701
C         -1.31621       -1.46631        2.80982
C          0.69600       -2.59003        2.20767
C         -0.64652       -2.36016        1.99599
C          2.76539       -1.92462        1.46375
C          1.52045       -2.66119        1.12181
C          2.79258        0.66256        0.84159
C          3.22037       -0.83758        0.49172
C          1.86015        1.39099       -0.15830
C          0.48491        2.59458        1.78503
C          0.81907        2.28957        0.30184
C         -1.55119        1.36265        2.89197
C         -1.04900        2.45713        2.05572
C         -2.23896       -0.80141        1.92530
C         -2.38533        0.56984        1.98187
C         -1.15739       -2.31572        0.70787
C         -2.17127       -1.38477        0.66537
C          1.04501       -2.75886       -0.19581
C         -0.37844       -2.58028       -0.43680
C          2.90314       -1.23190       -0.92856
C          2.02363       -2.41120       -1.24207
C          1.86607        0.99631       -1.55241
C          2.47781       -0.24358       -1.91742
C          0.92057        1.57426       -2.48734
C         -0.10721        2.75928       -0.65037
C         -0.02766        2.47941       -1.99444
C         -1.99847        2.58921        0.93021
C         -2.68927        1.27699        0.84437
C         -1.49872        3.14418       -0.32805
C         -2.53787       -0.73340       -0.52649
C         -2.95711        0.65447       -0.41030
C         -0.85189       -2.14186       -1.72042
C         -1.99649       -1.21742       -1.77578
C          1.52046       -2.22221       -2.57652
C          1.97717       -0.92557       -3.01183
C          0.07013       -2.13740       -2.81741
C          0.60508        0.91219       -3.72128
C          1.06266       -0.38121       -3.85410
C         -0.10575       -1.22436       -3.83600
C         -2.15478       -0.41080       -2.94205
C         -0.78864        0.92590       -4.22924
C         -1.19662       -0.42621       -3.93206
C         -1.31757        2.76463       -2.64541
C         -2.24975        2.82994       -1.54637
C         -2.98866        1.53761       -1.60210
C         -1.77509        1.79373       -3.61744
C         -2.70774        0.93856       -2.89083
