56
Modified xyz file
 C            1.24097695       -0.15349906        4.07397625
 C            2.39611322       -0.27747139        3.20350836
 C            2.28048081       -1.54815783        2.50585240
 C            0.42790365       -1.34692731        3.89215603
 C            0.94221088       -2.04461705        2.73007439
 C           -0.95873121       -0.93979578        3.89918925
 C            0.36205998        0.99355758        3.93141512
 C           -0.99760118        0.50434840        4.07619489
 C            0.64850925        1.97204792        2.98130554
 C            2.64989468        0.74730842        2.20531261
 C            1.84684319        1.87544954        2.15360808
 C            2.69854371       -1.33900476        1.13536830
 C            3.00116894        0.07583656        0.96721344
 C            2.01017421       -1.98139164        0.11165020
 C            0.13022331       -2.24895893        1.61576278
 C            0.73940920       -2.51410177        0.38214534
 C           -1.78006437       -1.25341967        2.74787881
 C           -1.22744153       -1.89210613        1.64041243
 C           -2.03814698        1.02369651        3.20603119
 C           -2.62802515       -0.10627439        2.50779389
 C           -0.41563430        2.54709281        2.16576425
 C           -1.69860103        2.02136880        2.20732825
 C            1.54292117        2.46281639        0.86256556
 C            0.15560739        2.89721382        0.88025867
 C            2.71929793        0.66952687       -0.26592220
 C            2.04788676        1.90315914       -0.31240784
 C            2.31369620       -1.56465037       -1.17983315
 C            2.69520780       -0.17564728       -1.37672506
 C            1.48190379       -1.97167048       -2.29513759
 C           -0.07040853       -2.94282434       -0.66939565
 C            0.35785229       -2.74491013       -2.04468103
 C           -1.91455752       -1.80969143        0.43041170
 C           -1.48656313       -2.63287864       -0.60379167
 C           -2.85385034        0.29046100        1.13035361
 C           -2.34527424        1.63917844        0.96244971
 C           -2.59307227       -0.62296534        0.11644424
 C           -0.59004501        2.74776710       -0.28393772
 C           -1.75594913        1.96557094       -0.25883677
 C            1.47791077        2.34136093       -1.51058630
 C            0.11652105        2.85819490       -1.47687254
 C            2.13143521        0.27149233       -2.63626063
 C            1.42064819       -0.85539198       -3.23235386
 C            1.61619532        1.55496332       -2.72285979
 C            0.28317548       -0.64532517       -4.00969494
 C           -0.83268967       -2.57299478       -2.85775837
 C           -1.95033948       -2.36454093       -1.95236392
 C           -0.87060867       -1.51254935       -3.84955323
 C           -2.52079653       -0.13073236       -1.18567208
 C           -2.08974594        1.19153597       -1.37805383
 C           -2.49237653       -1.05230203       -2.22954271
 C           -2.01060204       -0.66265643       -3.53893255
 C           -0.53311140        2.49114571       -2.71782029
 C            0.44891414        1.81284526       -3.54864756
 C           -0.22423696        0.70222305       -4.19731863
 C           -1.69631618        1.63769008       -2.63859118
 C           -1.60889616        0.70960496       -3.74887421
