56
Modified xyz file
C          1.55527        0.06864        4.09348
C          0.75895       -1.14150        4.16690
C          1.40468       -2.16682        3.27006
C          2.27698       -0.08902        2.86799
C          2.20667       -1.33983        2.33609
C          2.25656        1.01994        2.08258
C          0.75287        1.25598        3.83256
C          1.45461        2.03943        2.78418
C         -0.54182       -0.69317        3.63381
C         -0.52937        0.68014        3.36624
C         -1.28588       -1.55008        2.85200
C          0.54390       -3.20459        2.63632
C         -0.90967       -2.94551        2.63161
C          0.84234       -3.64297        1.26240
C          2.26008       -1.53470        0.93786
C          1.68846       -2.80073        0.40749
C          2.36279        0.94654        0.68322
C          2.37966       -0.37803        0.07357
C          2.00172        2.09101       -0.08950
C          0.65267        2.88779        1.89587
C          1.16453        3.19425        0.55170
C         -1.24716        1.22552        2.26386
C         -0.78679        2.53328        1.72090
C         -1.91502       -1.05136        1.73276
C         -1.93737        0.31735        1.38942
C         -1.44559       -3.29832        1.33154
C         -0.39358       -3.89215        0.52083
C         -2.01907       -2.05690        0.79905
C          1.05567       -2.74632       -0.89919
C         -0.26376       -3.42088       -0.86367
C          2.00134       -0.46326       -1.31182
C          1.28303       -1.61381       -1.78370
C          1.91927        1.97812       -1.47566
C          1.87360        0.72646       -2.06103
C          1.20727        2.92638       -2.32720
C         -0.02380        3.59558       -0.25771
C         -1.19720        2.94105        0.38515
C          0.05607        3.61409       -1.73596
C         -2.26259        0.66597        0.03796
C         -2.00507        1.99934       -0.45470
C         -2.12135       -1.75625       -0.55805
C         -1.49817       -2.79034       -1.55925
C         -2.40088       -0.41270       -0.93883
C          0.36275       -1.43302       -2.83687
C         -0.98969       -2.06931       -2.82112
C          1.12319        0.81855       -3.22413
C          0.71374        2.13336       -3.41452
C          0.30672       -0.25812       -3.57132
C         -1.10740        3.16149       -2.52559
C         -2.01507        2.22140       -1.84629
C         -0.62692        2.37306       -3.67287
C         -2.40937       -0.10723       -2.30594
C         -1.83322       -0.98778       -3.34610
C         -0.98355       -0.03349       -4.05246
C         -2.25783        1.18988       -2.71626
C         -1.45823        1.27362       -3.89763
