56
Modified xyz file
 C            1.59466336        0.07901010        3.90057786
 C            0.76550947       -1.10647206        3.78069979
 C            1.27055034       -1.89879905        2.66937282
 C            2.59185060        0.02367593        2.84834132
 C            2.51108301       -1.28338346        2.22404792
 C            2.43172684        1.19695571        2.00571999
 C            0.74897085        1.23019082        3.64584577
 C            1.26174998        1.91749176        2.47086650
 C           -0.62155398       -0.67724018        3.74962630
 C           -0.63011151        0.77737973        3.64010890
 C           -1.51477490       -1.42512784        2.99350835
 C            0.35947263       -2.39538194        1.73362179
 C           -0.98587416       -2.43985426        2.09520737
 C            0.73322314       -2.50392662        0.38371397
 C            2.85638132       -1.37918605        0.88813124
 C            2.04553011       -2.20490887        0.01625127
 C            2.62395706        1.05754365        0.63549394
 C            3.12414961       -0.15410725        0.15192241
 C            1.94145388        1.90759280       -0.23803970
 C            0.36411847        2.40407388        1.52719439
 C            0.79180210        2.58157325        0.20967859
 C           -1.51846831        1.39724129        2.76979632
 C           -1.00619929        2.35270326        1.79840729
 C           -2.59886999       -0.75919431        2.28989855
 C           -2.55283010        0.61627384        2.10684843
 C           -1.99186700       -2.68362888        1.08785083
 C           -2.96964432       -1.60654536        1.17113620
 C           -0.22340829       -2.75597961       -0.61431947
 C           -1.57906218       -2.78772492       -0.29320008
 C            0.11840101       -2.60573543       -1.95976648
 C            2.33347933       -1.77568175       -1.34133571
 C            2.98969938       -0.47683421       -1.25941481
 C            1.39210156       -2.01230520       -2.32950499
 C            2.22873474        1.81521630       -1.60085265
 C            2.63726389        0.53267771       -2.14424198
 C            1.36837263        2.44848562       -2.57984247
 C           -0.11321254        3.12847960       -0.70123308
 C            0.15910437        3.09109557       -2.12404640
 C           -1.95787440        2.39488243        0.70030190
 C           -2.74380935        1.17457730        0.77291009
 C           -1.52348842        2.83640536       -0.53674970
 C           -3.08357967       -1.02395305       -0.15571509
 C           -2.50895653       -1.98669137       -1.07397741
 C           -2.81727787        0.33157251       -0.33883791
 C           -0.88565252       -2.09662827       -2.87970842
 C           -2.11568460       -1.55563919       -2.32980895
 C            1.14128354       -1.00528039       -3.35126873
 C            1.76428467        0.23565563       -3.26935184
 C            0.99881372        1.43989390       -3.56088388
 C           -0.26852707       -1.06777989       -3.69850765
 C           -0.97182177        2.43247618       -2.76321836
 C           -1.92873136        2.10088195       -1.71984507
 C           -2.37217569        0.78568327       -1.58595726
 C           -2.12961290       -0.12875481       -2.61537670
 C           -0.45475052        1.37371480       -3.60962018
 C           -1.07991239        0.13334009       -3.59245514
