56
Modified xyz file
 C            1.49613977        0.07744796        3.98332664
 C            0.66916717       -1.10926102        3.84745802
 C            1.28600635       -1.97047318        2.85114179
 C            2.58019888       -0.03337840        3.02651715
 C            2.58227960       -1.38932916        2.51604638
 C            2.45928894        1.05380141        2.07099954
 C            0.68657662        1.21825709        3.59970433
 C            1.25559740        1.79846235        2.39296287
 C           -0.69859819       -0.67288778        3.64328681
 C           -0.69609083        0.78409165        3.56608356
 C           -1.50127333       -1.40111271        2.77448732
 C            0.49590464       -2.53620065        1.84479496
 C           -0.88935327       -2.37011079        1.87198633
 C            1.09685553       -2.95629340        0.65895456
 C            3.09613499       -1.59466472        1.24514942
 C            2.48474514       -2.61416215        0.41666549
 C            2.74065826        0.79366016        0.73710728
 C            3.31663220       -0.43391013        0.39260341
 C            2.08490431        1.53254202       -0.24507777
 C            0.39533716        2.17964979        1.36354721
 C            0.82165480        2.07949280        0.03466948
 C           -1.54669380        1.41605385        2.67000079
 C           -0.96764116        2.26274695        1.63584699
 C           -2.56487361       -0.72846717        2.04586611
 C           -2.62030033        0.66071215        2.04832650
 C           -1.62409919       -2.33058527        0.61652089
 C           -2.76889948       -1.45382107        0.80014535
 C            0.37671241       -2.81166691       -0.60068736
 C           -0.91941802       -2.31602347       -0.58694363
 C            2.60925097       -2.19636297       -0.96910114
 C            3.25423861       -0.89481327       -0.98689121
 C            1.30780895       -2.33424392       -1.60490031
 C            2.48326411        1.34100110       -1.56231957
 C            2.86919094        0.00346888       -1.96965835
 C            1.68520691        1.89229256       -2.63857041
 C           -0.06821077        2.39065791       -1.00808461
 C            0.40822572        2.48856614       -2.31579290
 C           -1.91374995        2.31310182        0.53942248
 C           -2.97930087        1.35929693        0.82704029
 C           -1.44963676        2.43571849       -0.76572544
 C           -3.28652393       -0.79202173       -0.30405820
 C           -3.53398034        0.64130600       -0.22450489
 C           -1.37532271       -1.53095214       -1.65079385
 C           -2.68302269       -1.04190869       -1.59966087
 C            0.89789537       -1.34969217       -2.49781852
 C            1.84809063       -0.41163557       -2.91135339
 C            1.42190497        0.80421129       -3.57281677
 C           -0.46757917       -1.05495221       -2.61615658
 C           -0.46899403        2.15065885       -3.41961866
 C            0.04234229        0.91403714       -3.98654944
 C           -0.87864121       -0.12799321       -3.58094750
 C           -2.35190184        2.16610982       -1.79706852
 C           -3.38397762        1.17418933       -1.56698708
 C           -3.08576244        0.05764932       -2.44909429
 C           -1.87026611        1.93160806       -3.14167884
 C           -2.15810200        0.53613205       -3.44780185
