56
Modified xyz file
 C            1.60696994        0.09326380        3.83060137
 C            0.76658032       -1.08132854        3.68277614
 C            1.36095023       -1.92721954        2.66647966
 C            2.58393897        0.07800740        2.75474572
 C            2.46147814       -1.18653018        2.06412050
 C            2.42219719        1.29421539        1.98570940
 C            0.76898542        1.26025356        3.63652108
 C            1.42569935        2.11157372        2.66335862
 C           -0.60060723       -0.63988075        3.49556830
 C           -0.58156829        0.80714923        3.34454675
 C           -1.41968364       -1.38813504        2.66913286
 C            0.53074243       -2.66994739        1.82911848
 C           -0.85851106       -2.51815589        1.93619371
 C            1.08186223       -3.13693741        0.63804078
 C            2.59345233       -1.21816384        0.68082073
 C            2.16248061       -2.37454821        0.03451894
 C            2.39696509        1.21201053        0.59348387
 C            2.66557441       -0.01577782       -0.03752660
 C            1.84302381        2.27488851       -0.13256127
 C            0.62138780        2.93057903        1.88969777
 C            1.00816701        3.18148035        0.51590766
 C           -1.26739765        1.41566950        2.29014259
 C           -0.80853076        2.66064843        1.86231907
 C           -2.31833375       -0.69702808        1.76567224
 C           -2.08163744        0.64067138        1.44743700
 C           -1.72197285       -2.74272543        0.78158795
 C           -2.66763119       -1.63658212        0.71537910
 C            0.21751965       -3.60717437       -0.42785957
 C           -1.19126965       -3.27148117       -0.38816522
 C            1.97502925       -2.38465118       -1.40682594
 C            0.76086473       -3.12865697       -1.68965274
 C            2.75642545       -0.06967768       -1.42668017
 C            2.23235592       -1.22900374       -2.12694825
 C            1.82812217        2.23760121       -1.52386318
 C            2.40058816        1.09824249       -2.20706773
 C            0.61700186        2.62197385       -2.23698023
 C           -0.18571146        3.64753817       -0.16620346
 C           -1.32609404        3.23466042        0.63978213
 C           -0.42430930        3.21627062       -1.53307984
 C           -2.55693964        1.15261514        0.22858481
 C           -2.18062705        2.42503461       -0.19616840
 C           -1.75052953        2.61955093       -1.57312552
 C           -3.07185203       -1.14311744       -0.51540127
 C           -3.13673141        0.29488092       -0.70699258
 C           -1.54297133       -2.68429700       -1.67183987
 C           -0.30985692       -2.47198812       -2.41814311
 C           -2.55162960       -1.73251505       -1.74152243
 C            1.23863996       -0.74695687       -3.07568968
 C            1.46360085        0.67828996       -3.23963891
 C            0.32737831        1.58098374       -3.21070747
 C           -0.06658432       -1.23900063       -3.02423514
 C           -2.03543183        1.63291284       -2.50892663
 C           -2.92772667        0.55378548       -2.12163179
 C           -2.43940666       -0.67309255       -2.72770851
 C           -0.95568126        1.05263643       -3.29660114
 C           -1.13875505       -0.39281463       -3.31050057
