56
Modified xyz file
 C            1.39511618       -0.12213715        4.67621553
 C            0.41831821       -1.18219695        4.50302092
 C            0.94415774       -2.13017883        3.53361068
 C            2.55115675       -0.44791199        3.86050011
 C            2.26141955       -1.67662922        3.13461602
 C            2.89618677        0.74650958        3.11163276
 C            0.82261704        1.10562240        4.14403432
 C            1.80636582        1.69997537        3.26943183
 C           -0.76892231       -0.59192367        3.91736299
 C           -0.48466627        0.79256391        3.59780337
 C           -0.07020790       -2.32630791        2.50611238
 C           -1.18219586       -1.44928530        2.82707544
 C            0.31547573       -2.44061624        1.16343014
 C            2.60846276       -1.77329373        1.79356680
 C            1.67072090       -2.37899577        0.85436047
 C            3.16553600        0.62511414        1.69062806
 C            3.22396360       -0.63728435        1.11721584
 C            1.39021828        2.10706384        1.94184132
 C            2.40452202        1.66070271        1.00919454
 C           -0.83925577        1.23951264        2.32340413
 C            0.05675411        1.99530545        1.55707367
 C           -1.83195500       -0.86693743        1.75731489
 C           -1.82904377        0.52656863        1.64509605
 C           -0.62870945       -2.14398187        0.16415477
 C           -1.84283401       -1.58767067        0.57675619
 C           -0.22322010       -2.00148726       -1.18008756
 C            2.07126601       -1.93992208       -0.46150832
 C            2.90549509       -0.76080932       -0.28981748
 C            1.14448642       -1.90737726       -1.49190381
 C            2.02498425        1.46149679       -0.31606552
 C            2.56410348        0.37733384       -1.01400208
 C           -0.23130401        2.15250287        0.20330658
 C            0.79630812        1.98398281       -0.73536123
 C           -2.34484913        1.06393135        0.46525013
 C           -1.55090762        1.99817437       -0.21166474
 C           -2.75836768       -1.16985954       -0.36795350
 C           -3.16576721        0.21635502       -0.27781260
 C           -1.18310758       -1.67245354       -2.15895639
 C           -2.49680079       -1.42781264       -1.76277023
 C           -0.77902960       -1.32496988       -3.45398256
 C            1.52320711       -1.14064889       -2.58541088
 C            2.12051890        0.15632777       -2.31083054
 C            0.60128199       -0.97412317       -3.68039159
 C            0.47920823        1.95020508       -2.09565397
 C            1.24558261        1.13237367       -2.92755705
 C            0.62697971        0.43439332       -4.04283278
 C           -1.86380782        2.36652225       -1.51875796
 C           -0.79226754        2.36627976       -2.49950055
 C           -3.62112227        0.62049388       -1.58978321
 C           -3.32489275       -0.47972844       -2.49664528
 C           -3.04826169        1.81753845       -2.15452368
 C           -1.55440570       -0.37240434       -4.23697186
 C           -0.71327895        0.79863357       -4.44447808
 C           -1.34640038        1.90806043       -3.76628884
 C           -2.82824292        0.09117519       -3.73006892
 C           -2.73058933        1.53222833       -3.54242873
