56
Modified xyz file
 C            1.63191422       -0.06653245        4.44221145
 C            0.80442051       -1.24634543        4.61354312
 C            1.40807137       -2.30972550        3.83661153
 C            2.60984433       -0.34470103        3.39931049
 C            2.48585867       -1.73434346        3.04135760
 C            2.44053288        0.65173070        2.35613462
 C            0.77494734        0.99182487        3.94949105
 C            1.45519917        1.60815594        2.82846690
 C           -0.50373303       -0.96300099        4.03727505
 C           -0.54332277        0.44054828        3.69419649
 C            0.40239068       -2.79080937        2.90916009
 C           -0.75816700       -1.92674720        2.98620228
 C            2.22399372       -2.06061787        1.65422916
 C            1.04456408       -2.90341826        1.62394611
 C            2.39500395        0.27500352        1.00575382
 C            2.34315809       -1.08605194        0.65248372
 C            1.92856694        1.23005130        0.09147883
 C            0.66846616        2.20768315        1.86204785
 C            1.22028253        2.33103364        0.59617167
 C           -1.15592444        0.82416142        2.50767346
 C           -0.71121645        2.00964320        1.93535038
 C           -1.30871360       -1.48367422        1.78271728
 C           -1.70122453       -0.14750199        1.65355548
 C            0.25920445       -2.77703433        0.49944426
 C           -1.00934960       -2.19913820        0.62209023
 C            1.84347156       -1.43109265       -0.61155487
 C            0.93948149       -2.49984001       -0.66627484
 C            1.81234852        0.88600544       -1.26017130
 C            1.81257931       -0.46289301       -1.62192067
 C            1.40167455        1.85009185       -2.18156230
 C            0.57461592        3.20024978       -0.27096220
 C            0.77663946        3.06088609       -1.69526916
 C           -1.49435548        2.56042433        0.93423435
 C           -0.84055066        3.41722907       -0.03976174
 C           -2.23414472        0.27803706        0.42884194
 C           -2.35815174        1.65405087        0.19961087
 C           -1.66938682       -1.86640586       -0.56471627
 C           -2.29412413       -0.61117547       -0.65543453
 C            0.22623768       -2.72192433       -1.82477918
 C           -1.20032369       -2.48861412       -1.72786908
 C            1.39240770       -0.84068912       -2.90220703
 C            0.68405526       -2.09489034       -3.03787774
 C            0.66651392        1.44727635       -3.36568738
 C            0.73042061        0.12341107       -3.76881934
 C           -0.52193368        3.18555718       -2.34325953
 C           -1.53134981        3.26212415       -1.30412001
 C           -2.47769154        2.16687818       -1.15758191
 C           -0.62458979        2.12655794       -3.32673233
 C           -2.75972189       -0.14132316       -1.88992380
 C           -2.64259025        1.26986747       -2.20138746
 C           -1.79800416        1.37847035       -3.38612952
 C           -1.66042869       -2.05997251       -3.03136556
 C           -0.48475787       -1.88431617       -3.87307242
 C           -0.46321518       -0.50523530       -4.31603629
 C           -2.45114619       -0.85664346       -3.11517502
 C           -1.75874734        0.06770453       -4.00393860
