56
Modified xyz file
 C            1.38716511       -0.22439035        3.77090871
 C            2.59588965       -0.41014555        2.99055761
 C            2.47625182       -1.66579690        2.26935641
 C            0.52210554       -1.36948344        3.53526693
 C            1.20948369       -2.27731037        2.63310803
 C           -0.79285406       -0.87085584        3.16355628
 C            0.59830837        0.98000046        3.57001070
 C           -0.77777021        0.57230992        3.32895885
 C            1.13921978        2.04392615        2.85214710
 C            2.97640365        0.61617251        2.03814190
 C            2.39720268        1.87567672        2.13167779
 C            2.75491158       -1.40884438        0.86437701
 C            3.11182289       -0.01081041        0.72794485
 C            1.94484420       -1.98959200       -0.10353794
 C            0.47317686       -2.90761476        1.64080780
 C            1.00143462       -2.94115206        0.28822648
 C           -1.45039319       -1.43345155        2.06989031
 C           -0.94401812       -2.60909946        1.51381105
 C           -2.39459695       -0.67940995        1.36373997
 C           -1.59733610        1.34887543        2.52282724
 C           -2.50520065        0.69267724        1.59772980
 C            0.26953590        2.88483542        2.04340561
 C           -1.05704031        2.52171406        1.84889723
 C            2.33483542        2.69506922        0.93838606
 C            1.04013254        3.35927858        0.90982805
 C            2.71392522        0.67748381       -0.41637012
 C            2.52153496        2.05958872       -0.35317074
 C            1.82075967       -1.37540246       -1.35198048
 C            2.20830400       -0.03255741       -1.51104082
 C            1.06438841       -2.02241128       -2.33152710
 C           -0.11767792       -3.24740255       -0.58811904
 C           -1.33795407       -3.00539593        0.17139656
 C           -0.04480864       -2.86192971       -1.91858907
 C           -3.00680960       -1.21821267        0.23247818
 C           -2.41091937       -2.36555285       -0.43078158
 C           -3.49759582       -0.31870096       -0.79838353
 C           -2.71030276        1.59964972        0.47771065
 C           -1.62480304        2.56157089        0.50723988
 C           -3.11638277        1.08067860       -0.74033416
 C            0.49967172        3.20224562       -0.43177751
 C            1.57602070        2.68705042       -1.25885263
 C           -0.78968515        2.69742630       -0.60292908
 C            1.79761367        0.69781615       -2.62906181
 C            1.24816218        2.02299620       -2.42550493
 C            0.64682110       -1.31746953       -3.52584721
 C            0.98980895        0.07728897       -3.66024607
 C           -1.23600996       -2.37266356       -2.59621189
 C           -2.38403281       -2.09552098       -1.86095901
 C           -3.08842899       -0.84465887       -2.08927008
 C           -0.80019453       -1.43502275       -3.62173441
 C           -2.32993694        1.37508685       -1.92792284
 C           -1.12617171        2.07537462       -1.81123849
 C           -0.15098009        1.93305230       -2.79863523
 C           -0.24817465        0.84003921       -3.75182753
 C           -2.42343081        0.22299997       -2.81706911
 C           -1.35622569       -0.09002553       -3.64946463
