56
Modified xyz file
 C            1.16708457       -0.06562581        3.63331683
 C            2.39128935       -0.43361617        2.96077677
 C            2.30166054       -1.83828478        2.59517306
 C            0.31491978       -1.24570283        3.69123632
 C            0.97213853       -2.30734422        2.95461465
 C           -1.02283276       -0.83297633        3.30203127
 C            0.37021502        1.01657023        3.08410897
 C           -1.01341108        0.62351224        3.26135652
 C            0.75395598        1.63109511        1.88840569
 C            2.77170702        0.30210257        1.77451422
 C            2.04473419        1.42295843        1.37695431
 C            2.76607692       -1.97336775        1.22041649
 C            3.16818771       -0.65733788        0.75725810
 C            2.09066859       -2.81498860        0.35350377
 C            0.23990965       -3.04563063        2.03514613
 C            0.88134046       -3.48435217        0.80664709
 C           -1.71824922       -1.54552531        2.32084218
 C           -1.12472220       -2.65113742        1.70740307
 C           -2.78322230       -0.92367114        1.67085868
 C           -1.98458919        1.27637172        2.52377426
 C           -3.04570525        0.47822243        1.94249613
 C           -0.22534068        2.26353241        1.10670017
 C           -1.56175019        2.22922514        1.51025775
 C            0.09820376        2.79061414       -0.14622405
 C            2.37959942        1.96194045        0.14148927
 C            1.42128143        2.78418652       -0.56620441
 C            3.00780665       -0.29107773       -0.57866808
 C            2.99796135        1.08108366       -0.83675769
 C            1.87437955       -2.39087994       -1.01696933
 C            2.39120756       -1.18044313       -1.47959615
 C           -0.10019290       -3.41113751       -0.26308141
 C           -1.31572602       -2.85069544        0.27770286
 C            0.51301020       -2.74739130       -1.38846158
 C           -2.95286756       -1.13221533        0.23961865
 C           -2.00079180       -1.88159110       -0.44614629
 C           -3.44923696        1.11193228        0.69996411
 C           -2.61262763        2.28574069        0.50850927
 C           -3.47915020        0.09261304       -0.33711228
 C           -0.90906179        3.02739479       -1.08475780
 C           -2.28271386        2.65693390       -0.78599703
 C           -0.67299462        2.72509298       -2.49054368
 C            1.71600516        2.66685138       -1.98586679
 C            2.66931189        1.58032971       -2.15465564
 C            0.62100083        2.45305014       -2.91425209
 C            1.86939957       -0.70662336       -2.68544494
 C            2.12669351        0.65283146       -3.11586132
 C            0.88014999        1.20648058       -3.62057251
 C           -0.22717690       -1.83330771       -2.12988274
 C           -1.48253830       -1.40713862       -1.66331977
 C            0.48855240       -1.02761916       -3.01240623
 C           -0.12392016        0.15098040       -3.59829786
 C           -3.10887866        0.44617428       -1.62538606
 C           -2.75777969        1.83256249       -1.88679486
 C           -1.74580746        1.84773551       -2.92661044
 C           -2.15592377       -0.38841932       -2.34037495
 C           -1.43124044        0.46998202       -3.26483059
