56
Modified xyz file
 C            1.47232677       -0.24981811        4.10730061
 C            0.61534588       -1.41865732        4.03598416
 C            1.09886323       -2.25970997        2.95568648
 C            2.49378789       -0.38501134        3.08334188
 C            2.23848693       -1.60217316        2.34391832
 C            2.53302069        0.85622113        2.34067825
 C            0.66998371        0.91302231        3.76548579
 C            1.38706346        1.65578734        2.75677844
 C           -0.71325380       -0.96936002        3.66462314
 C           -0.66504266        0.46510272        3.44600837
 C           -0.03451761       -2.58597718        2.10716902
 C           -1.17000717       -1.80387392        2.56660180
 C            0.17206814       -2.68038113        0.73444700
 C            2.28748711       -1.54845343        0.95667070
 C            1.44378906       -2.39026562        0.23050977
 C            2.83256813        0.81579417        0.98101933
 C            2.83925839       -0.42474759        0.32655426
 C            2.53925911        1.96497376        0.24893454
 C            0.67136121        2.31789941        1.76504550
 C            1.42817203        2.78571114        0.69914885
 C           -1.28077039        0.95808027        2.30132882
 C           -0.68158101        1.98419333        1.55191068
 C           -1.98160014       -1.22343777        1.59950449
 C           -2.22820064        0.14941979        1.68441066
 C           -0.93448068       -2.54989233       -0.10802148
 C           -2.04818485       -1.83568097        0.34760298
 C           -0.76982674       -2.77848739       -1.47175244
 C            1.69341321       -2.57286568       -1.12353877
 C            0.57836184       -2.85338786       -2.00874225
 C            3.02503649       -0.46202557       -1.05493859
 C            2.56021956       -1.62414955       -1.79675451
 C            2.50499931        1.92263552       -1.20360279
 C            2.69853262        0.71104419       -1.84793051
 C            0.76675457        3.32701369       -0.46169289
 C            1.42083277        2.78426470       -1.64387985
 C           -1.35933316        2.46313606        0.41423456
 C           -0.65390862        3.10778435       -0.60491008
 C           -3.07112328        0.73371669        0.75490066
 C           -2.62886672        1.96102409        0.11559082
 C           -3.00222924       -1.37518372       -0.55874882
 C           -3.66027317       -0.11568932       -0.26355658
 C           -1.55861521       -2.01754922       -2.42239389
 C           -2.71855572       -1.40044416       -1.98629853
 C            0.65691102       -1.92879013       -3.13097611
 C            1.86103034       -1.14656538       -2.98046716
 C            1.74488100        0.29226884       -2.86410931
 C           -0.61513025       -1.24002444       -3.20889008
 C            0.38498821        2.23186415       -2.50086424
 C           -0.88048330        2.72141411       -1.99052547
 C            0.49201793        0.90934649       -2.92789801
 C           -0.67203366        0.15588762       -3.15468757
 C           -3.04900058        1.90514597       -1.27636063
 C           -3.74607141        0.65062056       -1.49206603
 C           -3.02525962       -0.08340706       -2.51569355
 C           -2.03720673        2.03458351       -2.30726107
 C           -1.92526428        0.74805338       -2.97882866
