56
Modified xyz file
 C            1.58740471        0.03322193        3.75229125
 C            0.76901001       -1.16011114        3.66511493
 C            1.30632790       -2.00424225        2.61254251
 C            2.60154083       -0.04928144        2.71608154
 C            2.40229670       -1.27720143        1.98273951
 C            2.56701741        1.18756164        1.97466568
 C            0.73473656        1.16819416        3.44091872
 C            1.39100024        1.93260774        2.40512923
 C           -0.61210213       -0.73655890        3.55664803
 C           -0.59480331        0.66628183        3.17066562
 C           -1.48782959       -1.58155562        2.90008610
 C            0.41117106       -2.71322542        1.81173054
 C           -0.94096995       -2.71544760        2.16587308
 C            0.78792755       -3.02339009        0.50343700
 C            2.48121617       -1.24880178        0.59458955
 C            1.88783216       -2.29359270       -0.10975825
 C            2.84696448        1.16891877        0.61302447
 C            2.82314353       -0.06115880       -0.07535259
 C            2.52873992        2.33868302       -0.07094447
 C            0.61909317        2.54036006        1.41966858
 C            1.31824594        3.03689464        0.32253779
 C           -1.22839148        1.05953060        1.99109143
 C           -0.71451241        2.13387568        1.25167379
 C           -2.48943166       -0.99477590        2.03438270
 C           -2.23094183        0.24545783        1.44652546
 C           -1.94846757       -3.10453896        1.19246492
 C           -2.98777423       -2.08493868        1.22018963
 C           -0.21659033       -3.24938628       -0.52903908
 C           -1.56044175       -3.30149425       -0.19067137
 C            1.58979000       -2.14512550       -1.52439881
 C            0.19784965       -2.51429113       -1.71523531
 C            2.88761338       -0.08128707       -1.47304263
 C            2.09168372       -1.05067469       -2.20413912
 C            2.63924323        2.39565314       -1.51120687
 C            2.83141538        1.15822076       -2.22877913
 C            0.61266452        3.42308801       -0.88446597
 C            1.43784782        3.03684298       -2.02259746
 C           -1.44685661        2.61341836        0.16968110
 C           -0.76049859        3.24413717       -0.94900222
 C           -2.81410274        0.57269479        0.21466365
 C           -2.52827652        1.80468497       -0.36661297
 C           -3.37204532       -1.80628380       -0.14338682
 C           -2.52369737       -2.60110448       -1.02086791
 C           -3.30622754       -0.43818557       -0.61659074
 C           -0.68052561       -1.61697429       -2.32638961
 C           -2.04763313       -1.71939565       -2.07732656
 C           -2.83927498       -0.50729756       -1.98962611
 C            1.20014521       -0.30241827       -3.07209035
 C            1.75595028        1.03336854       -3.20251915
 C            0.87743902        2.18010607       -3.05646681
 C           -0.17832991       -0.46360518       -2.93794233
 C           -1.33996391        2.72896885       -2.17647929
 C           -2.46358086        1.88454955       -1.81781652
 C           -2.35187239        0.64927335       -2.57295909
 C           -0.49680907        1.98316405       -3.09678850
 C           -1.02335974        0.62658595       -3.16592078
