56
Modified xyz file
 C            1.39100305       -0.15981156        3.43745976
 C            2.47785571       -0.36260385        2.49232893
 C            2.23939198       -1.62371267        1.81228472
 C            0.53235830       -1.32975099        3.39090661
 C            1.13431150       -2.29054163        2.49137461
 C           -0.82160694       -0.88376705        3.12233486
 C            0.55075824        1.02015975        3.30795261
 C           -0.80558492        0.57042344        3.04283210
 C            1.04529112        2.12035659        2.62571646
 C            2.94118676        0.72203537        1.76478939
 C            2.36272443        2.03260303        2.01556115
 C            3.12710853        0.58782424        0.32964333
 C            2.34718497       -1.70494794        0.42162954
 C            2.79004949       -0.60004970       -0.31821550
 C            1.76827559       -2.79243493       -0.23197436
 C            0.29622603       -3.11494634        1.75685984
 C            0.74581020       -3.56375075        0.45345100
 C           -1.61349258       -1.59799774        2.22581436
 C           -1.11924997       -2.77509799        1.64549466
 C           -2.69938727       -0.94374193        1.64813708
 C           -1.58235826        1.20256843        2.07257909
 C           -2.68106074        0.50970327        1.56279826
 C            0.17901481        2.83030598        1.70091564
 C           -1.09148252        2.33142033        1.40247935
 C            2.32237951        2.75401869        0.75614531
 C            2.77041140        1.85605059       -0.29131749
 C            1.01542678        3.36308339        0.63151986
 C            2.10327758        1.84235447       -1.51430760
 C            2.58788620       -0.55620246       -1.69818256
 C            2.23736325        0.71322963       -2.31931181
 C            1.34831623       -2.66254856       -1.61412941
 C            1.83249370       -1.60533556       -2.36431882
 C           -0.41225424       -3.64398237       -0.42189982
 C           -1.57044120       -3.19143190        0.32139962
 C           -0.07360785       -2.97703180       -1.66653907
 C           -3.27258377       -1.45380690        0.41687635
 C           -2.53034885       -2.44077598       -0.33873072
 C           -3.26319447        0.89153667        0.28595194
 C           -3.53837000       -0.32398384       -0.45585672
 C           -1.74557138        2.80375389        0.26493179
 C           -2.73249139        1.97196440       -0.39664699
 C            0.47438022        3.49941964       -0.63742984
 C            1.05174195        2.74141902       -1.74358039
 C           -0.96815510        3.45281417       -0.77647245
 C           -2.29588770        1.79484694       -1.77559737
 C           -0.03457566        2.39066723       -2.65299282
 C           -1.28050351        2.79944119       -2.03715366
 C            1.25286431        0.44614362       -3.35089118
 C            0.94118445       -0.97178538       -3.31703748
 C            0.00585201        1.18127510       -3.32857145
 C           -0.96689098       -2.05963679       -2.22485421
 C           -2.22024316       -1.86389242       -1.64281575
 C           -2.83984912       -0.54799885       -1.70914697
 C           -2.14481560        0.50715284       -2.29547323
 C           -0.49196267       -1.11428068       -3.13091885
 C           -1.07615845        0.21927665       -3.14580170
