56
Modified xyz file
 C            1.43808594       -0.21878599        4.29175865
 C            0.57635321       -1.38750569        4.27171725
 C            1.12477527       -2.32874774        3.31235351
 C            2.51731626       -0.44428845        3.34818436
 C            2.28548340       -1.71746250        2.68704975
 C            2.63441731        0.74350944        2.52488103
 C            0.66953875        0.90935349        3.79797994
 C            1.43981626        1.54777734        2.74092735
 C           -0.72398419       -0.97576847        3.77188567
 C           -0.66769020        0.44121065        3.47739124
 C            0.03750286       -2.76656119        2.46034709
 C           -1.09240615       -1.87762294        2.69737712
 C            0.33744784       -3.10571652        1.15032522
 C            2.42084636       -1.78751577        1.29929202
 C            1.60379192       -2.66114574        0.57971447
 C            3.08861179        0.58613979        1.22751219
 C            3.06473294       -0.74514814        0.63137461
 C            2.61329237        1.50443625        0.21226562
 C            0.74766094        2.04738946        1.63643320
 C            1.40575064        2.17191276        0.40640362
 C           -1.23860861        0.88859679        2.29360878
 C           -0.64413620        1.96671507        1.64895035
 C           -1.77465763       -1.36148363        1.59711049
 C           -2.02445122        0.01681762        1.53443581
 C           -0.68065607       -2.91118789        0.13429553
 C           -1.77748809       -2.10346428        0.41654134
 C            1.39560598       -2.46189199       -0.84871697
 C           -0.00166600       -2.74895885       -1.13952587
 C            2.88515450       -0.57157008       -0.80462277
 C            2.86608333        0.86417176       -1.06056054
 C            2.02524395       -1.41417421       -1.51078642
 C            2.20558007        1.34009059       -2.17912526
 C            0.68848098        2.62127189       -0.70865527
 C            1.14437774        2.31972392       -1.99740349
 C           -1.35410580        2.57349463        0.62869731
 C           -0.62251577        3.05375751       -0.52663961
 C           -2.70242880        0.53757657        0.42715179
 C           -2.53418390        1.89382041        0.12803027
 C           -2.54435782       -1.65329320       -0.64799522
 C           -3.16502440       -0.34799897       -0.54772241
 C           -0.64838688       -2.05217918       -2.15652758
 C           -2.00287742       -1.76344236       -1.99467379
 C            1.49858992       -0.98579569       -2.72682615
 C            1.74617316        0.37759626       -3.16001734
 C            0.11930308       -1.31584602       -3.06133984
 C            0.19719647        2.14164607       -3.09223101
 C            0.52742092        0.89287298       -3.75727178
 C           -0.45372421       -0.17797166       -3.77318732
 C           -1.54801848        3.06225362       -1.64804772
 C           -2.77003188        2.40073046       -1.21412587
 C           -1.13952261        2.46872973       -2.90607289
 C           -3.42126300        0.10262193       -1.90778871
 C           -2.62934198       -0.73050289       -2.80060814
 C           -1.79508656        0.14022617       -3.60462831
 C           -3.18028386        1.48629329       -2.25738790
 C           -2.16773644        1.51529355       -3.30150742
