56
Modified xyz file
 C            1.30710645       -0.06043639        3.73919551
 C            2.58414396       -0.23186994        3.07521074
 C            2.57580985       -1.53662710        2.43950487
 C            0.46953169       -1.20375472        3.39925197
 C            1.22516203       -2.06891335        2.52406388
 C           -0.80027363       -0.69841898        2.93626831
 C            0.53654034        1.14375589        3.48111710
 C           -0.82917439        0.72766381        3.21072241
 C            1.10026493        2.17950606        2.73883549
 C            2.99432311        0.74180802        2.07970249
 C            2.36613953        1.98020342        2.03798674
 C            3.17244073       -1.39697970        1.12201217
 C            3.23543368        0.02790873        0.83152696
 C            2.72842183       -2.25061222        0.12708256
 C            0.64317586       -2.55567780        1.35640436
 C            1.52437604       -3.02137048        0.38653142
 C           -1.33135534       -1.16147740        1.73594967
 C           -0.63668594       -2.11286584        0.96474232
 C           -2.39304047       -0.45134686        1.17639721
 C           -1.65085396        1.53093621        2.43345469
 C           -2.56917938        0.89276999        1.50653067
 C            0.24893896        3.00934607        1.89877186
 C           -1.09838423        2.69925922        1.75851290
 C            2.27301027        2.65854547        0.75983556
 C            1.00729148        3.37065111        0.71842427
 C            2.70466895        0.52288417       -0.36609442
 C            2.38388654        1.87144182       -0.45727083
 C            2.55269252       -1.71769311       -1.20639240
 C            2.24258482       -0.36333531       -1.34482289
 C            1.01337088       -3.43654223       -0.89780608
 C            1.77677173       -2.71748515       -1.91010137
 C           -1.18295752       -2.54405223       -0.25931673
 C           -0.38505548       -3.22029068       -1.18391401
 C           -3.03346114       -0.95406947        0.05502648
 C           -2.38567468       -1.99834448       -0.71230230
 C           -3.64974872       -0.02478179       -0.87940310
 C           -2.84652065        1.85399623        0.45381419
 C           -1.73176351        2.79264526        0.44581973
 C           -3.36415056        1.39482802       -0.74822645
 C            0.41888689        3.14723911       -0.58861443
 C            1.31498811        2.28282840       -1.34316934
 C           -0.95370762        2.94768113       -0.70793278
 C            1.26852317        0.05600256       -2.27225506
 C            0.76213420        1.36094796       -2.22421462
 C            0.84955617       -2.28443292       -2.92651270
 C           -0.45152593       -2.83178087       -2.58044722
 C            0.66342385       -0.86453678       -3.13249945
 C           -2.53559998       -1.67053776       -2.12662899
 C           -3.28848322       -0.43511712       -2.22461731
 C           -1.45010904       -1.85770223       -2.97179711
 C           -0.73410985       -0.69021454       -3.48106882
 C           -2.73876717        1.83402939       -1.98033782
 C           -1.42011639        2.43812347       -1.91640740
 C           -0.51695180        1.62605336       -2.71755085
 C           -2.66959676        0.69776800       -2.88484366
 C           -1.29635120        0.57244458       -3.34814839

