56
Modified xyz file
 C            1.19294352        0.02999198        3.52033868
 C            2.45363410       -0.22551601        2.86715713
 C            2.43028905       -1.59715446        2.38952198
 C            0.35936133       -1.15367692        3.36221005
 C            1.06691449       -2.08289009        2.51172227
 C           -0.95666966       -0.71480156        2.95639301
 C            0.41218274        1.17152921        3.09129337
 C           -0.97103869        0.73927757        2.98839173
 C            0.90874711        2.05386678        2.13504065
 C            2.83928696        0.61914634        1.75595808
 C            2.10263310        1.76037675        1.44314329
 C            3.05558058       -1.62670552        1.08017264
 C            3.29150647       -0.24388628        0.67234345
 C            2.56961768       -2.53136880        0.14919701
 C            0.43673370       -2.59020815        1.37789227
 C            1.24070156       -3.09332773        0.35335195
 C           -1.60610113       -1.36114306        1.91237592
 C           -0.91130637       -2.29187021        1.12247776
 C           -2.74888487       -0.74429123        1.41094416
 C           -1.83445592        1.42049719        2.13063986
 C           -2.87233661        0.70194284        1.53424540
 C            0.00419777        2.98243557        1.62272058
 C           -1.40837475        2.62907414        1.56521627
 C            0.32253830        3.74184182        0.43154543
 C            2.36121352        2.34127756        0.20410808
 C            1.50308569        3.38482724       -0.31685549
 C            3.07762155        0.15414429       -0.65345580
 C            2.72203958        1.47858386       -0.90778737
 C            2.68907702       -2.20036095       -1.25391760
 C            2.79252271       -0.80300550       -1.62904704
 C            0.67169354       -3.37272161       -0.95334341
 C            1.54683662       -2.77080521       -1.94778096
 C           -1.52126445       -2.81873835       -0.01758718
 C           -0.70043594       -3.27814397       -1.12685289
 C           -3.29746258       -1.13960469        0.12544322
 C           -2.69048086       -2.16466993       -0.58259157
 C           -3.47981482        1.19879910        0.31435488
 C           -3.67677533        0.07298468       -0.58304769
 C           -1.92084234        3.06396122        0.26813627
 C           -0.81354034        3.64494219       -0.46846845
 C           -2.79837406        2.24159390       -0.42102003
 C            1.08136679        2.97852199       -1.65027616
 C            1.77872366        1.75604292       -1.97958602
 C           -0.36318836        2.97425668       -1.67554475
 C            1.74539200       -0.52674342       -2.60334067
 C            1.01078794       -1.75673156       -2.84250782
 C            1.07931292        0.69391958       -2.53833329
 C           -1.20520238       -2.64827766       -2.33620914
 C           -2.44776453       -1.97862725       -2.00431477
 C           -0.35944806       -1.69841806       -3.04139283
 C           -3.02867076        0.38732074       -1.84726546
 C           -2.36490541        1.66937837       -1.68915496
 C           -1.03773602        1.82901389       -2.09205640
 C           -0.32394842        0.72730968       -2.59028501
 C           -2.38286392       -0.62721174       -2.53678117
 C           -1.02465541       -0.40595817       -3.00753146
