56
Modified xyz file
 C            1.32189894        0.05391574        4.11693861
 C            0.51675599       -1.13905208        3.92195382
 C            1.26792425       -2.05687545        3.09833185
 C            2.50783786       -0.07484322        3.28763329
 C            2.52209350       -1.40934629        2.74089419
 C            2.52209893        1.03859381        2.36157464
 C            0.55597641        1.19001196        3.62705108
 C            1.32529709        1.83419752        2.59628967
 C           -0.78174726       -0.71621328        3.44886694
 C           -0.76417205        0.72773186        3.28277845
 C           -1.43058309       -1.45197442        2.46666665
 C            0.65482785       -2.54494162        1.87325950
 C           -0.66333339       -2.22127021        1.57110296
 C            2.69250171       -1.55356429        1.31112297
 C            1.64543742       -2.43846458        0.82282397
 C            2.92912566        0.84967081        1.03904016
 C            3.05308124       -0.45678081        0.52537543
 C            2.66802299        1.91002689        0.17048231
 C            0.67316194        2.35906101        1.48681105
 C            1.50925161        2.74348671        0.44810006
 C           -1.40421048        1.25163135        2.15920907
 C           -0.65044470        1.95564764        1.19648551
 C           -2.59192730       -0.86701593        1.98528354
 C           -2.55097105        0.57102353        1.75527376
 C           -3.25566179       -1.47753782        0.85772964
 C           -1.08056282       -2.35190576        0.24233762
 C           -2.44403362       -2.28133361       -0.02553824
 C            1.23494485       -2.29171602       -0.49967238
 C           -0.13966909       -2.22863149       -0.79841035
 C            3.02744031       -0.66429139       -0.85248715
 C            2.15470069       -1.70829357       -1.36695954
 C            2.74923218        1.72947700       -1.26532447
 C            2.95782380        0.45802586       -1.77079138
 C            0.93978629        3.16214386       -0.80617368
 C            1.74858753        2.59411859       -1.87430075
 C           -1.17812553        2.14866233       -0.09952009
 C           -0.43933446        2.82924645       -1.06858954
 C           -3.11049643        0.81297292        0.44428617
 C           -3.81416820       -0.40241728        0.06199554
 C           -2.34688845        1.49062260       -0.49773954
 C           -2.89904473       -2.01132622       -1.37029736
 C           -3.76325474       -0.83643639       -1.31799047
 C           -0.55959220       -1.93661068       -2.11285097
 C           -1.91328234       -1.78582944       -2.40146348
 C            1.74488947       -1.33113486       -2.69750747
 C            2.22139819        0.02106157       -2.94725097
 C            0.33829539       -1.37231366       -3.01658391
 C            0.83920946        2.05478785       -2.87202959
 C           -0.51305215        2.39428913       -2.45271500
 C            1.09451026        0.80612117       -3.42808743
 C           -0.00693749       -0.11305486       -3.65916413
 C           -2.61326943        1.31058051       -1.85928733
 C           -3.28119042        0.10229403       -2.30861617
 C           -2.33246940       -0.60864460       -3.14373583
 C           -1.57410025        1.58779078       -2.83449070
 C           -1.31358898        0.34462633       -3.55212052
