56
Modified xyz file
 C            1.35461476       -0.11609439        3.71095948
 C            2.60903984       -0.28976123        3.00240371
 C            2.57198055       -1.59013537        2.35545743
 C            0.51049941       -1.26532528        3.41381470
 C            1.21500391       -2.09980150        2.46386180
 C           -0.80438814       -0.76930383        3.05913713
 C            0.56425814        1.07843039        3.47272734
 C           -0.82024614        0.65474431        3.34298834
 C            1.05558204        2.07920858        2.63866096
 C            3.00182268        0.68764780        2.00294294
 C            2.26725240        1.86128746        1.85615221
 C            3.15768824       -1.45203597        1.03222899
 C            3.44803530       -0.03991098        0.82418417
 C            2.61644489       -2.19953154       -0.00708471
 C            0.56274290       -2.50893404        1.30542773
 C            1.33702571       -2.85840297        0.19992093
 C           -1.42066689       -1.23172751        1.89854666
 C           -0.79737168       -2.22907720        1.13118696
 C           -2.49448141       -0.50087366        1.37412971
 C           -1.71816254        1.45522487        2.65157965
 C           -2.69265883        0.81683773        1.78393313
 C            0.13007531        2.84517518        1.81889405
 C           -1.23741934        2.64359342        1.95907280
 C            2.05087629        2.42152322        0.53060062
 C            0.69935490        2.95181940        0.48195294
 C            3.28276433        0.52157135       -0.43831432
 C            2.56810922        1.78177440       -0.58576037
 C            2.61085059       -1.66199503       -1.35800223
 C            2.93007159       -0.32507437       -1.56867112
 C            0.71085397       -3.02705561       -1.10010331
 C            1.48464570       -2.25731597       -2.06413194
 C           -1.44763975       -2.74916028        0.01456805
 C           -0.67463950       -3.04600003       -1.18007743
 C           -3.14354296       -0.94224618        0.22440459
 C           -2.70387030       -2.16677465       -0.40891554
 C           -3.46166231        0.01550363       -0.82623674
 C           -3.09702323        1.80222679        0.79881556
 C           -2.09133052        2.85128392        0.80215524
 C           -3.28836774        1.37184313       -0.57593249
 C           -0.10552606        2.72159718       -0.63582762
 C           -1.48691554        2.87454721       -0.51737236
 C           -2.37181471        2.14147773       -1.40603707
 C            1.76380167        1.70026235       -1.79239546
 C            2.12918224        0.47216781       -2.48374483
 C            0.43144109        2.11694964       -1.77849871
 C            0.83243742       -1.53725489       -3.05992071
 C            1.19363973       -0.14757133       -3.30291604
 C           -1.34318485       -2.41957706       -2.31010432
 C           -2.63059530       -1.93010827       -1.84284161
 C           -3.00689851       -0.54622380       -2.08753541
 C           -0.60905128       -1.66224940       -3.21747766
 C           -1.84182510        1.57329036       -2.55506608
 C           -0.41631907        1.69822489       -2.80410529
 C           -0.02051214        0.57490996       -3.63637182
 C           -2.24216448        0.23050237       -2.95155847
 C           -1.12181649       -0.37410276       -3.65570417
