56
Modified xyz file
 C            0.94977606        0.04994111        4.62195277
 C            0.29765853       -1.14595380        4.11339341
 C            1.31836152       -2.01992993        3.58611327
 C            2.33884846        0.00814782        4.19743826
 C            2.59029125       -1.31105872        3.64986219
 C            2.58528120        1.17719247        3.37049122
 C            0.32522237        1.19995871        3.98784320
 C            1.35620751        1.95641939        3.32109517
 C           -0.76620939       -0.72765447        3.22543230
 C           -0.78324807        0.72103148        3.18774216
 C           -0.97762954       -1.39669959        2.02262966
 C            1.16264565       -2.52585173        2.23379681
 C            0.01488584       -2.23133939        1.49493804
 C            3.22215163       -1.42680800        2.34756366
 C            2.44099553       -2.37551248        1.57509013
 C            3.05838083        1.01306778        2.00200758
 C            3.40359096       -0.24233404        1.51928291
 C            1.12956359        2.33492245        1.94005365
 C            2.27055721        1.89611439        1.16399899
 C           -1.06288596        1.31532187        1.95894058
 C           -0.13320155        2.18040255        1.36588893
 C           -1.83641184       -0.78748734        1.11474242
 C           -1.90696471        0.61089308        1.10695289
 C           -2.13170924       -1.46603011       -0.06293793
 C            0.07530371       -2.36942245        0.10368094
 C           -1.10861729       -2.23895765       -0.62886855
 C            2.43364889       -1.91984631        0.20122477
 C            3.03398922       -0.60183513        0.16017952
 C            1.28523280       -2.09826181       -0.55332256
 C            2.03603760        1.57835080       -0.16770229
 C            2.44543523        0.33997006       -0.68478048
 C           -0.22002604        2.36260249       -0.01779708
 C            0.95128263        2.20374361       -0.77405028
 C           -2.33575538        1.24038580       -0.05613706
 C           -1.45844952        2.16326396       -0.63819764
 C           -3.11670732       -0.90500831       -0.87310315
 C           -3.24249692        0.53854745       -0.84626323
 C           -3.25622666       -1.33821958       -2.24827410
 C           -0.99921765       -2.32874609       -2.01741202
 C           -2.12785503       -1.99278618       -2.86310153
 C            1.22730789       -1.42445563       -1.76909967
 C            1.78930075       -0.14023843       -1.82853233
 C            0.19412013       -1.77986041       -2.62679883
 C            0.84981231        2.07473678       -2.14994656
 C            1.26369075        0.80455705       -2.71085364
 C           -1.57942498        2.50617627       -1.98644472
 C           -0.38243009        2.47261797       -2.79684600
 C           -3.54277022        0.99286466       -2.18741870
 C           -3.59437734       -0.17470131       -3.05238349
 C           -2.65508877        1.95685915       -2.79277013
 C           -1.63965976       -1.13255600       -3.93170182
 C           -0.22633704       -0.87945181       -3.68282598
 C            0.27380178        0.41581288       -3.70181330
 C           -0.62103863        1.54951956       -3.89133691
 C           -2.56323657       -0.01872107       -4.06426559
 C           -2.05540634        1.33630612       -3.96734985
