56
Modified xyz file
 C            1.48715159        0.09825978        4.08555443
 C            0.66721262       -1.07887487        3.86378107
 C            1.50072038       -2.04849098        3.19420282
 C            2.63032800        0.00468312        3.19118331
 C            2.69434189       -1.35642695        2.71874822
 C            2.51050289        1.07179384        2.21698586
 C            0.71336158        1.25348167        3.67591015
 C            1.51236863        1.99845228        2.72372623
 C           -0.56139806       -0.65651081        3.21137418
 C           -0.59581545        0.79464800        3.24508898
 C           -0.99605494       -1.31229223        2.05691962
 C            0.94881416       -2.75251229        2.05717620
 C           -0.35800846       -2.49219851        1.64186050
 C            2.78013622       -1.59572946        1.29039978
 C            1.99453808       -2.78714687        1.05150222
 C            2.53031115        0.78711324        0.84815521
 C            2.66909290       -0.53631075        0.38755212
 C            2.11531683        1.78605853       -0.03554797
 C            0.83413769        2.78370218        1.80726434
 C            1.31686057        2.82782753        0.43990422
 C           -1.20321895        1.46262583        2.19040200
 C           -0.60959382        2.63421916        1.71347446
 C           -1.85188746       -0.63183919        1.17878324
 C           -2.04872823        0.74994760        1.34324240
 C           -2.40257972       -1.31046321        0.08173051
 C           -0.76475012       -3.10184940        0.46038260
 C           -1.83085256       -2.51185609       -0.32587362
 C            1.62382487       -3.08109129       -0.24914379
 C            0.26548931       -3.54450005       -0.46594511
 C            2.39521425       -0.83966015       -0.95230096
 C            1.90936179       -2.10461845       -1.29139473
 C            2.18622842        1.55624443       -1.40363485
 C            2.25666463        0.18897061       -1.87715965
 C            1.30675063        2.29324182       -2.29802143
 C            0.21221595        3.31918108       -0.37168347
 C           -1.00511244        3.15849276        0.41404169
 C            0.20184816        3.04666017       -1.73386563
 C           -2.76508923        1.47278434        0.39605769
 C           -2.15040767        2.65260352       -0.18545855
 C           -3.21763416       -0.63807956       -0.82772397
 C           -3.46481312        0.77539633       -0.65706052
 C           -3.00947793       -0.86999977       -2.24627600
 C           -1.50556701       -2.70275189       -1.73552860
 C           -0.13065364       -3.14374072       -1.80144068
 C            0.86538259       -2.21532207       -2.30179148
 C           -1.91943528       -1.73982924       -2.64120438
 C            1.29305324        0.04148796       -2.95962379
 C            0.76650768        1.35755331       -3.26978670
 C            0.44641782       -1.06526308       -2.96709097
 C           -0.90920381       -0.90931834       -3.29207637
 C           -1.02357824        2.58865065       -2.37255522
 C           -2.19856569        2.49775875       -1.62957188
 C           -3.15433047        1.44161868       -1.91507186
 C           -2.80838227        0.41927054       -2.88332367
 C           -0.66945981        1.54201102       -3.32650158
 C           -1.47955597        0.42193749       -3.46874663
