56
Modified xyz file
 C            1.51963604       -0.00392987        4.28310554
 C            0.75666086       -1.23491475        4.15723113
 C            1.59533335       -2.18454312        3.45964977
 C            2.59776697       -0.06686105        3.31446711
 C            2.72417052       -1.44651841        2.90341287
 C            2.34109783        0.93644110        2.29751770
 C            0.64453594        1.08647757        3.89488953
 C            1.20711246        1.73708978        2.72090850
 C           -0.53790090       -0.88616413        3.59024184
 C           -0.69547505        0.54598374        3.78422236
 C           -0.96129670       -1.46584981        2.38504534
 C            1.00763609       -2.95594300        2.38376320
 C           -0.30725895       -2.58750205        1.88206329
 C            2.77533305       -1.74030135        1.48557587
 C            1.92149921       -2.88225728        1.25913038
 C            2.43721160        0.60588871        0.95408724
 C            2.71972023       -0.70922186        0.55152731
 C            1.84675494        1.46951524        0.03602842
 C            0.31625606        2.21730550        1.75599177
 C            0.65743737        2.12104694        0.39213699
 C           -1.56888165        1.21480733        2.95096187
 C           -1.02735357        2.27827686        2.12245088
 C           -1.86488278       -0.77322446        1.56915925
 C           -2.38162294        0.42947132        2.04800423
 C           -1.96655605       -1.08562729        0.19778116
 C           -0.27345395       -2.79098527        0.44923839
 C            1.12017712       -2.88008880        0.05199142
 C           -1.11595759       -2.04748688       -0.36532712
 C            2.44455544       -1.05294754       -0.77165690
 C            1.52020058       -2.08295420       -1.01496016
 C            2.16737525        1.29300798       -1.30269518
 C            2.57082431       -0.03927809       -1.71524482
 C            1.28199905        1.81652170       -2.32131640
 C           -0.27917388        2.46901124       -0.60299340
 C            0.00252443        2.22412368       -1.95300480
 C           -2.02762955        2.53459987        1.11546922
 C           -2.93231647        1.38849386        1.11960644
 C           -1.60397968        2.72294579       -0.25198872
 C           -2.75397768       -0.28923009       -0.65751056
 C           -3.11319374        0.99668017       -0.25663028
 C           -2.65225372        2.12392180       -1.04881253
 C           -2.73063889       -0.53207907       -2.03439266
 C           -0.76600563       -1.92763204       -1.70714125
 C            0.59650654       -1.91370419       -2.04588788
 C           -1.72308642       -1.42524698       -2.57599923
 C            2.05281815       -0.26121993       -3.05006516
 C            1.47666111        0.99098737       -3.50326176
 C            1.03333565       -1.27216246       -3.20185550
 C           -1.33230520       -0.93407028       -3.88469847
 C            0.33416185        0.65839511       -4.32913221
 C            0.07561565       -0.76798523       -4.16504923
 C           -1.05324570        2.14464553       -2.87322511
 C           -2.40252173        1.90438964       -2.38819507
 C           -2.79909502        0.61767117       -2.92400703
 C           -0.90970646        1.35594358       -4.08825827
 C           -1.96514779        0.35628694       -4.08234932
