56
Modified xyz file
 C            1.24693202        0.01348522        4.39531306
 C            0.51947278       -1.16134854        3.95625908
 C            1.46690766       -2.01824663        3.28170473
 C            2.53184113        0.01892532        3.70717068
 C            2.63923132       -1.21790774        2.96362278
 C            2.63519875        1.26543770        2.98127963
 C            0.50637608        1.17914367        3.95186304
 C            1.44841832        2.05024187        3.28912144
 C           -0.65552258       -0.72551575        3.21419548
 C           -0.65536532        0.72823919        3.19855744
 C           -1.01511101       -1.40704196        2.05080758
 C            1.03715311       -2.63586422        2.05069693
 C           -0.30172937       -2.55893965        1.68738260
 C            2.74956273       -1.17276020        1.50982211
 C            2.01072660       -2.31270910        1.02217533
 C            2.76513234        1.23754232        1.53010250
 C            2.62819136        0.03731291        0.83371022
 C            1.02617025        2.66738843        2.05408179
 C            2.04397637        2.39622191        1.05458999
 C           -1.00009760        1.38740620        2.01668286
 C           -0.29938176        2.54670546        1.65016777
 C           -1.74202618       -0.72012102        1.07045411
 C           -1.71689232        0.68365987        1.04022278
 C           -2.26160520       -1.43577703       -0.01082588
 C           -0.60105274       -3.15060482        0.47032180
 C           -1.77712278       -2.71930367       -0.25122026
 C            1.54499997       -2.32236121       -0.28551849
 C            0.47402792       -3.17789615       -0.50707599
 C            2.05214237        0.05718931       -0.44226139
 C            1.61213886       -1.14013934       -1.04406215
 C            1.63051003        2.43818357       -0.26792469
 C            1.80472842        1.29325846       -1.05759472
 C           -0.58731415        3.12800316        0.42323898
 C            0.51887599        3.23774758       -0.51059363
 C           -2.20995237        1.37350185       -0.07169256
 C           -1.71295317        2.64235482       -0.34520590
 C           -2.96987852       -0.76350548       -1.00533129
 C           -2.88502712        0.68221414       -1.07554821
 C           -2.96750780       -1.26813188       -2.37193529
 C           -1.56814623       -3.17093028       -1.61649997
 C           -0.12836857       -3.22020067       -1.81432983
 C           -2.12451734       -2.39625569       -2.70324991
 C            1.00350305       -1.10343601       -2.31367308
 C            0.20857434       -2.16970881       -2.74392760
 C           -1.00636264       -1.89168636       -3.48945818
 C            1.38739138        1.32284611       -2.38662579
 C            0.92941443        0.09850228       -3.01417836
 C           -0.03319975        3.29591382       -1.84400018
 C           -1.45772198        3.02131124       -1.72567394
 C            0.51244907        2.39651562       -2.83501709
 C           -2.68297617        1.05253306       -2.47502852
 C           -2.57938147       -0.17546852       -3.24337700
 C           -1.29916110       -0.51921995       -3.84712243
 C           -0.26910784        0.41052270       -3.79162693
 C           -1.81825795        2.09509287       -2.77931451
 C           -0.60830564        1.79768006       -3.53365092
