56
Modified xyz file
 C            1.26450136       -0.00586497        3.95547240
 C            2.44903468       -0.18887849        3.14489104
 C            2.41618117       -1.53965469        2.60605729
 C            0.41521959       -1.17344574        3.77264296
 C            1.12691822       -2.11966489        2.92829661
 C           -0.89909585       -0.70690280        3.35627442
 C            0.44987848        1.16953926        3.73179053
 C           -0.92180868        0.72582891        3.53911384
 C            0.77330502        2.06440511        2.63155245
 C            2.70220139        0.71934884        2.03732303
 C            1.85592470        1.80126745        1.79178567
 C            2.82891275       -1.47036069        1.21484976
 C            3.16632426       -0.08587240        0.91962634
 C            2.15445961       -2.21594895        0.25083874
 C            0.42383380       -2.78080491        1.93097416
 C            1.01880017       -2.94510037        0.60999213
 C           -1.47683689       -1.24873339        2.21145951
 C           -0.97719960       -2.45587970        1.72652305
 C           -2.29510373       -0.45765930        1.39001110
 C           -1.50047503        1.53695410        2.49152608
 C           -0.48983782        2.48564327        2.04918435
 C           -2.30428575        0.94011312        1.52773669
 C           -0.52858933        2.92164458        0.72687405
 C            1.87282249        2.38128199        0.52871096
 C            0.66859078        3.01772508        0.01222670
 C            2.99471350        0.38102886       -0.38007899
 C            2.51711616        1.67951342       -0.57283693
 C            2.34807547       -1.87703910       -1.08504906
 C            2.87938964       -0.55993278       -1.40102454
 C            1.31858161       -2.18127429       -2.06644582
 C           -0.07749067       -3.09176461       -0.34011301
 C           -1.32525150       -2.89345780        0.38955199
 C            0.06190148       -2.59520993       -1.63543993
 C           -2.92433743       -1.05022956        0.29194984
 C           -2.39802207       -2.29464242       -0.24846884
 C           -3.36218696       -0.23212287       -0.82772970
 C           -2.65226151        1.73645613        0.44060934
 C           -1.73502288        2.79206103        0.03982751
 C           -3.21310952        1.14403013       -0.75917386
 C           -1.75886667        2.87918072       -1.40824869
 C           -2.67324076        1.86288495       -1.90396624
 C            0.68314490        2.87810401       -1.44003150
 C            1.81826979        2.04242186       -1.80006716
 C           -0.51265016        2.76056386       -2.13706205
 C            2.35474263       -0.16745684       -2.69642510
 C            1.42244414       -1.19605338       -3.12969721
 C            1.69949858        1.11771687       -2.82990726
 C           -1.99603675        1.12472155       -2.95773404
 C           -0.67339987        1.70800962       -3.13019441
 C            0.21652412       -0.54155560       -3.60060502
 C            0.40627234        0.89502603       -3.45963089
 C           -1.07276732       -2.22908687       -2.36235222
 C           -2.36007703       -2.17421222       -1.69221722
 C           -3.00397447       -0.92410663       -2.05579650
 C           -1.01345370       -1.10878104       -3.29236604
 C           -2.16220092       -0.25377352       -3.03501031
