56
Modified xyz file
 C            1.66126830       -0.07179159        4.63740424
 C            0.78632785       -1.20985056        4.86881698
 C            1.24744596       -2.29684459        4.02745463
 C            2.55654047       -0.40764539        3.54176722
 C            2.33813860       -1.79423326        3.20641762
 C            2.38107418        0.58664010        2.49362943
 C            0.83314225        1.03409655        4.19522696
 C            1.40002240        1.54836570        2.95779991
 C           -0.54631946       -0.84155435        4.41970869
 C           -0.55069419        0.58993576        4.18443330
 C            0.16150914       -2.65592045        3.12919609
 C           -0.92604517       -1.72511898        3.32441082
 C            2.01809048       -2.10698145        1.83232531
 C            0.71912018       -2.74899324        1.80424031
 C            2.32401831        0.19164830        1.15423215
 C            2.26688804       -1.17166215        0.83166083
 C            1.81978778        1.11147429        0.22040694
 C            0.53915527        2.09144833        2.01329688
 C            0.94554545        2.10962691        0.67689988
 C           -1.36601770        1.07358758        3.17544380
 C           -0.83004870        2.08569915        2.28646933
 C           -1.53702649       -1.17019845        2.19729450
 C           -2.04100180        0.12123710        2.30550796
 C           -0.08421307       -2.43436038        0.71952229
 C           -1.24625647       -1.68117498        0.91925061
 C            1.76812680       -1.49048691       -0.42182659
 C            0.58239666       -2.22726955       -0.47489577
 C            1.82873282        0.75989011       -1.14148174
 C            1.99896419       -0.59412919       -1.45001394
 C            1.24955984        1.62500202       -2.08763857
 C            0.11833133        2.75798753       -0.23222213
 C            0.33444682        2.57814238       -1.65446588
 C           -1.76059815        2.15273695        1.17801105
 C           -2.39688088        0.84615724        1.10151033
 C           -1.31828367        2.71730422       -0.00340302
 C           -1.83206255       -1.09206985       -0.21571680
 C           -2.39838332        0.18840428       -0.12261840
 C           -0.18161522       -2.12654696       -1.62716948
 C           -1.45735118       -1.56245887       -1.48484238
 C            1.68206291       -1.04897098       -2.72032599
 C            0.53262208       -1.92753808       -2.80542514
 C            1.21904661        1.26163494       -3.43622443
 C            1.57598244       -0.09233665       -3.79209850
 C            0.05205265        1.62321969       -4.23116275
 C           -0.97841135        2.63467537       -2.28105058
 C           -1.91232787        2.25206570       -1.24023526
 C           -2.47862175        0.97628402       -1.27335973
 C           -1.13829086        2.08148604       -3.54008869
 C           -2.10591353       -1.02192662       -2.59857405
 C           -2.59402561        0.34017342       -2.50225309
 C           -2.15082162        1.05000712       -3.69251808
 C           -0.17065540       -1.63420370       -4.03331725
 C            0.58613640       -0.60347027       -4.72700023
 C           -0.32438888        0.47904650       -5.04507290
 C           -1.54207164       -1.19706160       -3.92876969
 C           -1.65820969        0.06682169       -4.63856704
