56
Modified xyz file
 C            1.47484877        0.04509147        4.00810974
 C            0.70685209       -1.16318664        3.76658941
 C            1.41951742       -1.95687970        2.78026285
 C            2.57935298        0.05776917        3.06583495
 C            2.66351188       -1.25861277        2.46844163
 C            2.40752421        1.19846349        2.18298071
 C            0.62275398        1.17805226        3.69863108
 C            1.30270273        1.98854561        2.70589481
 C           -0.66147771       -0.77501592        3.48761460
 C           -0.70458453        0.67614912        3.38408215
 C           -1.38493173       -1.52781671        2.57924353
 C            0.70129771       -2.58186418        1.75529579
 C           -0.69250190       -2.49572869        1.73417159
 C            1.37263847       -2.96983172        0.59654305
 C            3.16552723       -1.35006389        1.18075484
 C            2.70412614       -2.44550516        0.35594289
 C            2.53557784        1.00445897        0.80377931
 C            3.16317188       -0.15171377        0.34604765
 C            1.76765087        1.77011658       -0.08003405
 C            0.52333875        2.70354737        1.81488017
 C            0.94254802        2.77227681        0.43122015
 C           -1.41035455        1.27240453        2.33763871
 C           -0.91015792        2.45588759        1.78885675
 C           -2.37551427       -0.86516307        1.75345767
 C           -2.35395170        0.52438947        1.62442866
 C           -1.39686334       -2.54664032        0.45947787
 C           -2.56684128       -1.69446526        0.57436345
 C            0.66658395       -2.97660212       -0.67921565
 C           -0.66656364       -2.56901673       -0.72596009
 C            2.76724435       -2.00975839       -1.02408751
 C            2.97683023       -0.57074433       -1.03023618
 C            1.59881272       -2.53388084       -1.70609518
 C            1.65205044        1.40540474       -1.42998531
 C            2.20039841        0.19854097       -1.89018236
 C            0.82341013        2.16110631       -2.26663242
 C           -0.22095385        3.19828045       -0.32473946
 C           -1.39146497        2.91933863        0.49772527
 C           -0.25546167        2.93909555       -1.68475262
 C           -3.03588026        1.10872926        0.55763483
 C           -2.50132631        2.30793938       -0.06591706
 C           -3.10112126       -1.12237942       -0.56756351
 C           -3.55453055        0.25511495       -0.49875195
 C           -1.16715858       -1.93587353       -1.87122805
 C           -2.41018788       -1.29866512       -1.83450219
 C            1.10818603       -1.80764269       -2.77668193
 C            1.61668706       -0.46158116       -2.97384722
 C           -0.32618314       -1.72032224       -2.96162470
 C            0.30974986        1.58568971       -3.49535545
 C            0.66385166        0.22451481       -3.82120051
 C           -0.55612802       -0.57192787       -3.82429856
 C           -1.49657497        2.50058462       -2.30638583
 C           -2.57865551        2.14020820       -1.50946035
 C           -3.26819676        0.88846346       -1.77430773
 C           -2.63869864       -0.10016486       -2.63310561
 C           -1.14169173        1.66760805       -3.44629888
 C           -1.66878918        0.31327557       -3.53745375
