56
Modified xyz file
 C            1.13429714       -0.18562235        4.00124346
 C            2.34512697       -0.33945634        3.21537521
 C            2.21853022       -1.55970605        2.43526322
 C            0.30755409       -1.35927825        3.77208070
 C            0.90265687       -2.11953663        2.68596663
 C           -1.06120002       -0.91395031        3.63176149
 C            0.30309791        0.99219688        3.80052769
 C           -1.06367326        0.54041639        3.60613936
 C            0.77278694        2.03846861        3.01522745
 C            2.73384976        0.72742927        2.31193294
 C            2.09434184        1.95673309        2.40366203
 C            2.58993955       -1.25753579        1.06397005
 C            2.96730990        0.14198672        0.99648580
 C            1.82421684       -1.78295396        0.03387167
 C            0.12180325       -2.48807457        1.59022509
 C            0.74951842       -2.61954242        0.34715127
 C           -1.81121665       -1.36739280        2.48068223
 C           -1.27318355       -2.33792465        1.64311112
 C           -1.78845105        0.96537344        2.41463061
 C           -2.42890611       -0.20842804        1.86040481
 C           -0.11539312        2.62665701        2.02557015
 C           -1.20407126        1.89080862        1.55635568
 C            2.07517522        2.81170367        1.23314116
 C            0.72407390        3.33575974        1.08965737
 C            2.65767868        0.87022576       -0.15399889
 C            2.44489199        2.24526772       -0.05146191
 C            1.86651573       -1.15957805       -1.21235650
 C            2.21391462        0.19437705       -1.29782018
 C            1.28341582       -1.79971218       -2.30202177
 C            0.06876066       -3.25817814       -0.68231977
 C            0.40386031       -2.92759680       -2.05652340
 C           -2.01162081       -2.62101340        0.49955284
 C           -1.37252041       -3.33256241       -0.58861649
 C           -2.68135335       -0.26549995        0.49640368
 C           -2.78503498       -1.53320772       -0.08082931
 C           -1.47453418        1.82376897        0.17884498
 C           -2.33961417        0.82446283       -0.30955375
 C            0.38946285        3.27584603       -0.31327204
 C            1.59930350        2.90265376       -1.02822273
 C           -0.81274733        2.69722336       -0.70683239
 C            1.86061934        0.93280868       -2.43169406
 C            1.45373440        2.32067069       -2.27624653
 C            0.68840053       -1.00901814       -3.36270534
 C            1.01086288        0.33803721       -3.45365740
 C           -0.83798656       -2.68984788       -2.77799441
 C           -1.93071016       -2.83710932       -1.83593113
 C           -2.75841865       -1.68173596       -1.52664875
 C           -0.69972793       -1.43617584       -3.49642662
 C           -2.64098521        0.75545259       -1.66744212
 C           -2.67310096       -0.54298240       -2.31764647
 C           -1.72449816       -0.49564183       -3.42305658
 C           -1.01290324        2.58323425       -2.07905457
 C            0.16192964        2.45651423       -2.92586851
 C           -0.02894230        1.30037046       -3.77982925
 C           -2.01787591        1.67898577       -2.58665196
 C           -1.41896045        0.90182935       -3.66455584
