56
Modified xyz file
 C            1.26340652       -0.16968546        4.36375943
 C            0.41770802       -1.34652297        4.26218868
 C            1.04314048       -2.26813348        3.33047698
 C            2.42709505       -0.38822654        3.52414290
 C            2.34451831       -1.72952219        2.97598422
 C            2.52857344        0.73102514        2.60261991
 C            0.53018637        0.95810218        3.81138936
 C            1.34699114        1.56695187        2.78509272
 C           -0.84159825       -0.93253048        3.67657312
 C           -0.78707507        0.50014387        3.43638266
 C            0.09052599       -2.55392179        2.26380156
 C           -1.11654241       -1.79543429        2.53707527
 C            0.55558444       -2.63322078        0.95172046
 C            2.79586183       -1.92930176        1.68214190
 C            1.93742147       -2.63748929        0.74795108
 C            2.99170518        0.50020590        1.30798546
 C            3.34544887       -0.80170244        0.94282722
 C            2.66572973        1.43426166        0.32382840
 C            0.72679919        2.09401233        1.65516120
 C            1.52801408        2.31253974        0.54667709
 C           -1.33314072        0.95474318        2.24387273
 C           -0.65123096        1.90561392        1.46845592
 C           -1.79765939       -1.23635947        1.46561846
 C           -2.19539228        0.08960583        1.58778672
 C           -0.30812681       -2.29956994       -0.10692364
 C           -1.55962768       -1.72734495        0.18242779
 C            0.17589983       -2.30257064       -1.42541494
 C            2.46600330       -2.36070762       -0.56881507
 C            3.33194292       -1.19415502       -0.45680747
 C            1.53559720       -2.11285053       -1.64173638
 C            2.67871977        1.07195791       -1.08835234
 C            2.91406796       -0.23647188       -1.46306622
 C            1.95570100       -0.90191405       -2.32678805
 C            0.91439096        2.58399422       -0.73245960
 C            1.61314405        1.80568416       -1.74301239
 C           -1.26186338        2.32278832        0.27114272
 C           -0.46544489        2.69845045       -0.82847686
 C           -2.97962114        0.62245963        0.58755987
 C           -2.58471264        1.91311016        0.06498294
 C           -2.37330099       -1.25300411       -0.85200708
 C           -3.25458644       -0.20508414       -0.56708497
 C           -0.66127061       -1.90460368       -2.45973775
 C           -2.03062193       -1.54595884       -2.16857576
 C            0.97331024       -0.16996938       -2.99148784
 C            0.86225174        1.21486687       -2.75884985
 C           -0.15488668       -0.89594930       -3.37648777
 C           -0.99064995        2.67934423       -2.12236589
 C           -0.30064910        1.89078400       -3.13419578
 C           -3.20920486        2.03569938       -1.23923246
 C           -3.69195052        0.70998743       -1.60836704
 C           -2.41433404        2.53208955       -2.33239853
 C           -2.47841627       -0.69333809       -3.26375589
 C           -1.29204269       -0.22205438       -3.96372625
 C           -1.30470486        1.21951174       -3.93594852
 C           -3.30818405        0.45895341       -2.97933687
 C           -2.61290046        1.64071044       -3.46421557
