56
Modified xyz file
 C            1.24194750        0.06663565        4.05618192
 C            2.43739351       -0.11456125        3.25789890
 C            2.42884147       -1.47969325        2.76063150
 C            0.41558253       -1.12088450        3.89106765
 C            1.08483050       -1.99827297        2.94467656
 C           -0.94207521       -0.68787880        3.61356118
 C            0.40974753        1.22287233        3.79754006
 C           -0.96380921        0.76275788        3.66548488
 C            0.69350247        2.05633207        2.64085864
 C            2.66373686        0.75149411        2.11295234
 C            1.69950622        1.69262126        1.74182689
 C            2.98986420       -1.46107545        1.42190311
 C            3.28329579       -0.07264004        1.09126821
 C            2.42073011       -2.28109196        0.45678380
 C            0.38470331       -2.47941401        1.83836542
 C            1.08568945       -2.82135610        0.68164141
 C           -1.65985973       -1.32975186        2.61540489
 C           -1.00016014       -2.32397163        1.77851992
 C           -2.52647425       -0.54975485        1.74709756
 C           -1.56689556        1.50221713        2.56582072
 C           -0.59269783        2.48610893        2.12688460
 C           -2.31990396        0.82422144        1.60774413
 C           -0.66478027        2.94716323        0.82514336
 C            1.60913766        2.10032637        0.40575197
 C            0.51733818        2.85606408       -0.01669407
 C            3.21452329        0.34325692       -0.23045395
 C            2.44630910        1.53395236       -0.55296829
 C            2.51390704       -1.90404752       -0.94356293
 C            2.96584497       -0.63260470       -1.28021137
 C            0.39730641       -2.85029278       -0.60100949
 C            1.35286019       -2.45756734       -1.62307199
 C           -1.67469346       -2.32029455        0.48637422
 C           -2.76372913       -1.36007407        0.56619467
 C           -0.92426064       -2.41737334       -0.68369066
 C           -3.18790760       -0.73603571       -0.59266551
 C           -2.54444571        1.42752301        0.36627616
 C           -1.79702199        2.55113972        0.00744401
 C           -3.22442908        0.71572617       -0.62143596
 C            0.06305581        2.75779107       -1.39822054
 C           -1.39412661        2.74348066       -1.37604264
 C            1.98195680        1.40131017       -1.92652648
 C            2.35281421        0.07135938       -2.39395741
 C            0.75588043        1.95145269       -2.30121989
 C            0.88511975       -1.85697571       -2.78288685
 C            1.49053751       -0.61295084       -3.24011603
 C           -1.39622949       -1.83303780       -1.86492262
 C           -2.62262547       -1.16331964       -1.85800379
 C           -0.54855823       -1.73064448       -2.97134470
 C           -3.10358987        1.12008241       -2.01487490
 C           -2.08929994        2.09113893       -2.38337552
 C           -2.87163366       -0.08322955       -2.79847564
 C            0.09700200        1.45120371       -3.42426003
 C            0.46243956        0.14130061       -3.93393890
 C           -0.74291778       -0.66981536       -3.94554171
 C           -1.35048404        1.55367152       -3.51165435
 C           -1.87279550        0.22540623       -3.80017243
