56
Modified xyz file
 C            1.21016047       -0.10242519        3.65605771
 C            2.45105715       -0.39047612        2.98086478
 C            2.41127872       -1.77432866        2.53668070
 C            0.36820550       -1.28706794        3.57987325
 C            1.11126701       -2.32439832        2.89196937
 C           -0.92557006       -0.88302390        3.05680535
 C            0.42777957        1.02506124        3.19370324
 C           -0.93790502        0.56988148        2.98671579
 C            0.96621406        1.93945231        2.29035506
 C            2.81679807        0.43052834        1.84551666
 C            2.16142108        1.63659440        1.60348705
 C            2.84806683       -1.81544014        1.14743295
 C            3.07188131       -0.44728922        0.71382259
 C            2.24352466       -2.70921854        0.27729868
 C            0.44840316       -3.12462891        1.97143036
 C            1.15761981       -3.53838967        0.77342357
 C           -1.51829081       -1.61785108        2.03432454
 C           -0.91821154       -2.79372708        1.58087713
 C           -2.49134122       -1.00520822        1.25278230
 C           -1.71922272        1.20631891        2.02285424
 C           -2.60688276        0.44733647        1.26135408
 C            0.07063047        2.86544695        1.75835930
 C           -1.31080606        2.45495461        1.55408798
 C            0.45878561        3.70986997        0.64729385
 C            2.41539665        2.21868519        0.36263526
 C            1.65982479        3.37213434       -0.07546727
 C            2.66651547       -0.03013087       -0.55501685
 C            2.60748229        1.34025936       -0.78123039
 C            1.87479219       -2.25765980       -1.05444320
 C            1.91534121       -0.89399530       -1.36078601
 C            0.18563577       -3.68112485       -0.29352553
 C           -1.09812923       -3.20822025        0.19549373
 C            0.73825637       -3.05941883       -1.48112309
 C           -2.72407971       -1.46833918       -0.10682847
 C           -1.89064487       -2.44294410       -0.65625411
 C           -2.96034680        0.87565723       -0.08476185
 C           -3.14750470       -0.31976301       -0.89690313
 C           -1.71165990        2.89959972        0.22777282
 C           -0.64465166        3.73599489       -0.29969858
 C           -2.36605330        2.01544898       -0.62442631
 C            1.30405433        3.16269012       -1.46956879
 C            1.80755013        1.85623786       -1.87292515
 C           -0.11379736        3.44486563       -1.61963441
 C            1.07070040       -0.38580922       -2.36075449
 C            0.96641763        0.99724657       -2.56950790
 C           -0.14703760       -2.51110367       -2.39079005
 C           -1.54656355       -2.38352903       -2.00823017
 C            0.20718244       -1.25953592       -3.02563478
 C           -2.88398189       -0.28031236       -2.25811364
 C           -2.12035982       -1.35579579       -2.86057430
 C           -1.02224181       -0.75580573       -3.60489627
 C           -2.12352779        2.09492338       -1.99611976
 C           -0.85686179        2.63526520       -2.46568815
 C           -0.18731283        1.53942214       -3.14117306
 C           -2.43262246        0.96205331       -2.85482676
 C           -1.23663587        0.67103229       -3.63436988
