56
Modified xyz file
 C            1.40965843        0.02795237        4.15173274
 C            0.56186709       -1.12345019        3.88656619
 C            1.31725148       -2.04140516        3.06752700
 C            2.55973779       -0.06421912        3.26984785
 C            2.58457608       -1.40351040        2.73491630
 C            2.50247794        1.04531768        2.33635289
 C            0.66003250        1.21478986        3.78132957
 C            1.35976457        1.87602750        2.69565009
 C           -0.70407653       -0.62866085        3.38258228
 C           -0.71168670        0.81365925        3.55812806
 C           -1.25593061       -1.16081139        2.21510806
 C            0.73056703       -2.50962108        1.82559280
 C           -0.52894164       -2.07409368        1.43129962
 C            2.77981919       -1.56254437        1.30987756
 C            1.78656912       -2.51211153        0.83789725
 C            2.78240683        0.83902773        0.98430564
 C            3.06231256       -0.45577993        0.50814486
 C            2.37468873        1.83372684        0.09743181
 C            0.61307101        2.47132842        1.67819351
 C            1.21372163        2.64203438        0.43412184
 C           -1.46467047        1.56459400        2.67181470
 C           -0.78128593        2.49354236        1.77547513
 C           -2.33464039       -0.48542793        1.64037200
 C           -2.46771495        0.88412112        1.87421732
 C           -2.95667507       -1.04065766        0.52721551
 C           -0.89800013       -2.27748603        0.10189029
 C           -2.20739843       -1.98940351       -0.27359025
 C            1.44843864       -2.46724363       -0.50963386
 C            0.09248675       -2.47516036       -0.87357208
 C            3.08984228       -0.69538525       -0.86536586
 C            2.37501263       -1.86132850       -1.35581567
 C            2.35041040        1.58419474       -1.33069615
 C            2.83745692        0.38152313       -1.80700180
 C            0.39763793        2.77125995       -0.76398995
 C            1.10110339        2.11875464       -1.85896587
 C           -1.59660269        2.60850584        0.57094307
 C           -2.77416501        1.77154251        0.76725567
 C           -0.98591347        2.66613306       -0.68114699
 C           -3.69034309       -0.17247340       -0.38025326
 C           -3.43839277        1.25755005       -0.33588082
 C           -2.53571143       -1.76141496       -1.67148094
 C           -3.44997571       -0.63306925       -1.73693509
 C           -0.25453376       -2.43934628       -2.22678836
 C           -1.53454708       -1.88322461       -2.62530076
 C            2.04131721       -1.62200424       -2.74316184
 C            2.23298021       -0.20086154       -2.99276085
 C            0.71670559       -1.97970303       -3.20226560
 C            0.37731198        1.40803830       -2.81777775
 C           -1.26309241       -0.77536006       -3.53823028
 C            0.97097161        0.33062235       -3.47692041
 C            0.15174960       -0.80896221       -3.85103791
 C           -1.69785556        2.27613018       -1.81247558
 C           -3.01028800        1.67243158       -1.65828330
 C           -3.08155280        0.51776308       -2.53845490
 C           -1.00732400        1.57339602       -2.88397239
 C           -1.85062850        0.46075321       -3.30403107
