56
Modified xyz file
 C            1.35425595        0.07957382        4.11549816
 C            0.57723638       -1.13490042        3.94601377
 C            1.41005812       -2.09248505        3.26036845
 C            2.54032228       -0.03964117        3.28265594
 C            2.59897287       -1.39409565        2.78583822
 C            2.50667173        1.03935865        2.32008898
 C            0.56458904        1.18870085        3.60372842
 C            1.36124073        1.88019065        2.62660374
 C           -0.68748242       -0.77096848        3.34054292
 C           -0.71044090        0.67691031        3.17303423
 C           -1.23756782       -1.56133901        2.33078729
 C            0.85132514       -2.79418991        2.12384377
 C           -0.48670330       -2.60816424        1.76156808
 C            2.67916841       -1.60574630        1.34940342
 C            1.86579457       -2.77446495        1.08308508
 C            2.77927405        0.78824639        0.97443185
 C            2.60679265       -0.51496324        0.47601548
 C            2.57961128        1.86458043        0.11631565
 C            0.73287658        2.48534607        1.54842510
 C            1.59574191        2.85232790        0.52871881
 C           -1.29578650        1.19738687        2.02050914
 C           -0.57925274        2.09331878        1.20073543
 C           -2.29068288       -0.99620456        1.61546697
 C           -2.32767797        0.45130250        1.46947779
 C           -2.74081852       -1.58504490        0.36960945
 C           -0.89726530       -3.18621495        0.55876153
 C           -2.03735117       -2.65162856       -0.16770476
 C            1.46581117       -3.02051234       -0.21737739
 C            0.12255101       -3.52983222       -0.41919448
 C            2.09790888       -0.71624230       -0.81935336
 C            1.68581390       -1.98548091       -1.21615020
 C            2.32756246        1.61553822       -1.28490697
 C            1.82189101        0.37230786       -1.64791359
 C            1.05150948        3.45601554       -0.65806195
 C            1.71163766        2.82608782       -1.79042424
 C           -1.08927083        2.43794053       -0.07114879
 C           -0.36775580        3.32562814       -0.87869352
 C           -2.81174667        0.75571763        0.14367948
 C           -3.18584382       -0.50155386       -0.49236504
 C           -2.19192427        1.74762226       -0.60607871
 C           -3.05764994       -0.62603592       -1.86883614
 C           -1.71665059       -2.66910540       -1.59059478
 C           -0.32843237       -3.07360884       -1.71820417
 C            0.63478752       -2.10037707       -2.21027187
 C           -2.16487095       -1.64047642       -2.40860549
 C            0.83718602        0.26203596       -2.64782405
 C            0.15316101       -0.94894635       -2.82457555
 C           -1.18714246       -0.93744147       -3.22034138
 C            0.72752596        2.71473239       -2.83885215
 C           -0.51203707        3.27635011       -2.31922227
 C            0.39962546        1.39747313       -3.33945950
 C           -2.47946527        1.80372241       -1.97273732
 C           -2.85976642        0.58034208       -2.65633070
 C           -1.81323930        0.30203110       -3.62928601
 C           -1.59230078        2.50109063       -2.87794686
 C           -0.99177713        1.48778548       -3.73274593
