56
Modified xyz file
 C            1.29174792       -0.07644578        3.71367181
 C            2.51743163       -0.29835036        2.97048698
 C            2.41572375       -1.59824512        2.33235568
 C            0.41335989       -1.21173414        3.47559068
 C            1.06131268       -2.08969389        2.52825456
 C           -0.89857923       -0.70242982        3.14733530
 C            0.53338856        1.13646807        3.46565011
 C           -0.84314447        0.75297441        3.17680940
 C            1.11953439        2.17038320        2.74800347
 C            2.90901765        0.66485293        1.95555991
 C            2.29797138        1.91010564        1.92483256
 C            2.91384920       -1.47055577        0.97477227
 C            3.10775711       -0.05294267        0.70635351
 C            2.33217825       -2.25652934       -0.00619223
 C            0.34766184       -2.53248780        1.41807293
 C            1.06848460       -2.91606964        0.28684695
 C           -1.63916500       -1.31392999        2.14458985
 C           -1.02476301       -2.26348465        1.30613372
 C           -2.75148076       -0.61061617        1.69579875
 C           -1.61005983        1.48186647        2.25912075
 C           -2.66225238        0.83567990        1.61053981
 C            0.25750850        3.07213112        2.01186445
 C           -1.08775627        2.63960089        1.67915214
 C            2.09316774        2.55955692        0.64388888
 C            0.93139126        3.42121052        0.77377611
 C            2.63863513        0.49223098       -0.49253817
 C            2.25934507        1.84403421       -0.54088637
 C            2.22735925       -1.73042959       -1.35214000
 C            2.37748186       -0.36256769       -1.57441532
 C            0.38377957       -3.13401187       -0.97700826
 C            1.14676848       -2.44876534       -2.01130981
 C           -1.72370770       -2.79252099        0.21700243
 C           -1.00371078       -3.10952970       -1.00563205
 C           -3.49291702       -1.07201110        0.54214073
 C           -2.99966361       -2.22452985       -0.17504389
 C           -2.96272601        1.19034647        0.23246852
 C           -3.57450931        0.04017325       -0.39464612
 C           -1.28808310        2.87130001        0.25449964
 C           -0.05459308        3.41479709       -0.29286073
 C           -2.04060767        1.95089373       -0.47471069
 C            1.64499421        2.35229693       -1.68319242
 C            0.35121312        3.00638214       -1.55184204
 C            1.96751440        0.15693636       -2.79899517
 C            1.59688287        1.55110899       -2.88604370
 C            0.48661056       -1.84556793       -3.07422904
 C            1.00449985       -0.58857930       -3.59326766
 C           -1.69496288       -2.46126476       -2.11289431
 C           -2.90290352       -1.85642316       -1.57712870
 C           -3.05416971       -0.41223865       -1.66407110
 C           -0.96448742       -1.74222461       -3.05169129
 C           -1.59742314        1.52927186       -1.73983842
 C           -0.57414610        2.24545439       -2.36610014
 C            0.23272960        1.61321040       -3.39212803
 C           -0.12885020        0.28946331       -3.84090618
 C           -2.06008002        0.32390506       -2.30369214
 C           -1.29455811       -0.34245556       -3.26216791
