56
Modified xyz file
 C            1.26780163       -0.08890227        3.94561958
 C            2.53362842       -0.42014810        3.32902958
 C            2.36777809       -1.70485122        2.65775745
 C            0.42280297       -1.26653749        3.84638654
 C            0.97886807       -2.09481632        2.79351787
 C           -0.93839378       -0.79722753        3.70642240
 C            0.49700455        1.02238361        3.41239677
 C           -0.88928583        0.65244569        3.58314995
 C            0.89369966        1.63658856        2.21990657
 C            3.08433489        0.50801505        2.36365700
 C            2.22591865        1.54445306        1.81130907
 C            2.92524900       -1.57990432        1.32614919
 C            3.56891241       -0.27994529        1.24825411
 C            2.18528095       -2.01300560        0.22884748
 C            0.22969155       -2.33037293        1.64069697
 C            0.89258915       -2.51811897        0.41750045
 C           -1.72864578       -1.28861322        2.59552463
 C           -1.16472820       -2.16114511        1.67301909
 C           -1.82590836        1.03082341        2.55176571
 C           -2.50593950       -0.17005415        2.09492982
 C           -0.07020550        2.10831574        1.31354894
 C           -1.44043512        1.95148002        1.59336075
 C            0.33975816        2.52153687        0.03536178
 C            2.54454730        1.64947450        0.39761790
 C            3.37434232        0.50488600        0.04346739
 C            1.55187051        2.06232331       -0.48422512
 C            2.54940158       -1.52657043       -1.02645477
 C            3.08350570       -0.17606613       -1.12821917
 C            1.68622876       -1.75187317       -2.17521354
 C            0.17844078       -2.97886016       -0.68624372
 C            0.53229676       -2.50641623       -2.01551715
 C           -1.91109608       -2.41952510        0.53167592
 C           -1.26544687       -3.02863641       -0.61044474
 C           -2.97206844       -0.20610264        0.77743885
 C           -2.81942349       -1.38744357        0.04466874
 C           -2.36113887        2.16114865        0.57899792
 C           -3.10619646        1.00677625        0.09549544
 C           -0.57170717        3.13320300       -0.82082867
 C           -1.98212539        2.96361074       -0.55979560
 C           -0.38567296        2.99752613       -2.25363969
 C            1.62772055        1.67050912       -1.82536547
 C            2.31547766        0.50453702       -2.15103844
 C            1.64571346       -0.51530534       -2.94197745
 C            0.69276498        2.15588806       -2.73441304
 C            0.49466628       -0.16902755       -3.63877058
 C            0.12912817        1.23742518       -3.71135821
 C           -0.69344616       -2.11079540       -2.69579417
 C           -1.80298653       -2.41135986       -1.81127489
 C           -2.68839877       -1.33299943       -1.40487311
 C           -0.72901770       -0.92969130       -3.42765451
 C           -3.04123510        1.03322463       -1.35710142
 C           -2.57965586        2.35932925       -1.73795749
 C           -1.63062605        2.49596957       -2.82105442
 C           -1.31741362        1.32611707       -3.61411826
 C           -2.59566613       -0.09816187       -2.03889556
 C           -1.80255921        0.02448662       -3.18524468
