56
Modified xyz file
 C            1.32511692        0.07224185        3.92182987
 C            2.52237701       -0.13617105        3.13619053
 C            2.50620462       -1.50807688        2.65070892
 C            0.49109686       -1.11333923        3.78344302
 C            1.19903086       -2.06399951        2.94184344
 C           -0.84118853       -0.67554121        3.39315001
 C            0.50010693        1.22452372        3.62332712
 C           -0.87346893        0.76137164        3.53293077
 C            0.77192959        2.00170992        2.42279692
 C            2.76945446        0.71690781        1.98585835
 C            1.78852341        1.61471549        1.55540817
 C            2.97686821       -1.48318253        1.27468904
 C            3.42936725       -0.12384631        1.00803823
 C            2.27730429       -2.17718345        0.28441961
 C            0.50277074       -2.71157060        1.93172632
 C            1.09988960       -2.85285997        0.60888228
 C           -1.44823610       -1.24644544        2.27764565
 C           -0.90688071       -2.41443326        1.73848108
 C           -2.38121332       -0.50995946        1.53229374
 C           -1.51636965        1.52355980        2.48813797
 C           -0.51198384        2.37867729        1.87077278
 C           -2.42588194        0.89342947        1.64890746
 C           -0.62586463        2.63636759        0.50750234
 C            1.67557612        1.90526723        0.19231838
 C            0.48473439        2.44103029       -0.32395576
 C            3.48136498        0.31122985       -0.30431003
 C            2.67543816        1.46270403       -0.67705810
 C            2.52551724       -1.86315047       -1.05067577
 C            3.31058138       -0.67831208       -1.34939378
 C            1.43630192       -1.92487478       -2.01698976
 C            0.01082612       -2.89858498       -0.35823122
 C           -1.23871067       -2.80215384        0.37939929
 C            0.15221785       -2.23991981       -1.57817760
 C           -3.02564227       -1.15023156        0.46880164
 C           -2.33396724       -2.21856353       -0.22979308
 C           -3.73272953       -0.37779500       -0.53675765
 C           -2.86344559        1.65971345        0.57383539
 C           -1.90844517        2.56761573       -0.03858772
 C           -3.66138752        1.06185208       -0.47349879
 C           -2.09514302        2.50878843       -1.47746592
 C           -3.15790438        1.54815918       -1.74801026
 C            0.34096347        2.60539573       -1.70384083
 C           -0.98251422        2.53549720       -2.30400066
 C            2.40501859        1.35320846       -2.09956631
 C            2.71009023       -0.01436779       -2.49099281
 C            1.63637888       -0.85962244       -2.98642576
 C            1.26510051        1.94853285       -2.61427500
 C           -0.91568037        1.59482459       -3.40952647
 C            0.53060496       -0.25171332       -3.55987222
 C            0.47065342        1.20180079       -3.57650893
 C           -0.96513951       -1.66396022       -2.19497848
 C           -2.22621406       -1.81512854       -1.61925883
 C           -3.23695699       -0.79513641       -1.84091802
 C           -2.88105025        0.39518202       -2.59203072
 C           -0.79755136       -0.73890202       -3.22753021
 C           -1.71783919        0.38471921       -3.35070761
