56
Modified xyz file
 C            1.40010896        0.06719000        4.33958255
 C            0.64093264       -1.12613368        4.00904357
 C            1.52026688       -2.01090003        3.28290914
 C            2.63869774        0.02778028        3.57646098
 C            2.70003634       -1.24975603        2.89852935
 C            2.70393224        1.23460739        2.78138155
 C            0.63864312        1.21700878        3.88413591
 C            1.51446268        2.02435354        3.06986136
 C           -0.59581914       -0.71474786        3.36709675
 C           -0.59290069        0.73522841        3.28878327
 C           -1.07587626       -1.42702008        2.26573200
 C            1.00506491       -2.63230823        2.08320121
 C           -0.34700276       -2.52708269        1.77489952
 C            2.78708538       -1.28832427        1.44431325
 C            1.95695401       -2.39382795        1.01288327
 C            2.80880492        1.13268539        1.33367974
 C            2.77083786       -0.11127503        0.69615435
 C            1.00766859        2.51030744        1.80200122
 C            2.00104360        2.20957754        0.79597573
 C           -1.07444947        1.32107357        2.12055740
 C           -0.32622118        2.31043947        1.45732239
 C           -2.00235452       -0.78657669        1.43152504
 C           -2.03483690        0.61378206        1.39841312
 C           -2.63514573       -1.52250293        0.43388188
 C           -0.71993161       -3.08507899        0.55783614
 C           -2.00692889       -2.74600020       -0.00910166
 C            1.47279751       -2.40162982       -0.28995326
 C            0.26038015       -3.05601571       -0.51767186
 C            2.33107709       -0.16377343       -0.63063961
 C            1.85716307       -1.37627190       -1.15656376
 C            1.55823545        2.10334359       -0.51026143
 C            2.02249457        1.03922324       -1.27527195
 C           -0.69072448        2.64314018        0.14987214
 C            0.31670317        2.64947077       -0.82927463
 C           -2.68764861        1.27811528        0.36434764
 C           -2.01373056        2.41824518       -0.21944922
 C           -3.14827919       -0.85007479       -0.74567395
 C           -3.30213776        0.52559412       -0.71745661
 C           -1.85522730       -2.67344255       -1.45409448
 C           -0.45054480       -2.85533753       -1.77042058
 C           -2.52694363       -1.46930855       -1.90919083
 C            1.39957077       -1.41970944       -2.47163787
 C            0.12179163       -2.05567399       -2.74835050
 C            1.73883055        1.04000959       -2.63629119
 C            1.47340457       -0.22369847       -3.29000659
 C           -0.00157911        2.77567743       -2.18072639
 C            0.77510380        2.00732046       -3.14116204
 C           -2.40999157        2.50763793       -1.61044466
 C           -3.10123965        1.27318471       -1.94710282
 C           -1.38597170        2.72644153       -2.60840645
 C           -1.91730882       -0.66561384       -2.87247784
 C           -0.70336036       -1.07417018       -3.43743365
 C            0.21162654       -0.09754358       -4.00424047
 C           -0.15809518        1.30226423       -4.00680592
 C           -2.37056207        0.64555011       -3.03454933
 C           -1.49890679        1.66454622       -3.59572092
