56
Modified xyz file
 C            1.05838795       -0.12938050        4.04180105
 C            2.31501197       -0.26140635        3.32956318
 C            2.25272819       -1.49007277        2.55123128
 C            0.27026563       -1.31625029        3.75293546
 C            0.90845082       -2.01132177        2.64643537
 C           -1.10590571       -0.89887092        3.60204370
 C            0.21803745        1.03173750        3.79187506
 C           -1.14010968        0.55653224        3.59763590
 C            0.68601791        2.06080793        2.98299223
 C            2.73865847        0.80694207        2.44114171
 C            2.03078047        2.00085610        2.42128228
 C            2.77915952       -1.20768208        1.23866910
 C            3.15404191        0.19725937        1.18569580
 C            2.16422506       -1.75607182        0.12444015
 C            0.18524991       -2.24554522        1.47332395
 C            0.84167818       -2.22925509        0.22614456
 C           -1.82676407       -1.34355603        2.43038239
 C           -1.21410897       -2.20740446        1.52622539
 C           -1.87915624        0.97774555        2.41321653
 C           -2.53926965       -0.19947527        1.89154108
 C           -0.18738540        2.60734241        1.95576064
 C           -1.29295806        1.87208051        1.52478509
 C            2.02451701        2.78440665        1.20205700
 C            0.66337850        3.25065215        0.98265089
 C            3.00782591        0.88250592       -0.02594022
 C            2.48735241        2.17633562       -0.03527908
 C            2.62194158       -1.28243406       -1.09506976
 C            2.94597298        0.13087110       -1.19848272
 C            1.95383031       -1.68128285       -2.30829202
 C            0.12630468       -2.57162870       -0.93386540
 C            0.66439094       -2.32130668       -2.19736448
 C           -1.93686167       -2.48462892        0.37567470
 C           -1.23347558       -2.84420815       -0.83664431
 C           -2.88303630       -0.24947153        0.54904829
 C           -2.95431588       -1.52339421       -0.00870176
 C           -1.59608576        1.77690619        0.15596244
 C           -2.54581911        0.83002712       -0.27765901
 C            0.35756851        3.06907401       -0.41409101
 C            1.54812248        2.56393493       -1.07782507
 C           -0.86706299        2.53394776       -0.78148014
 C            2.22794394        0.65111508       -2.35307865
 C            1.79362443       -0.49491535       -3.13599129
 C            1.38559747        1.75193850       -2.19936795
 C           -0.17760919       -1.75593911       -3.24050739
 C            0.44941560       -0.51363281       -3.67751817
 C           -2.11292045       -2.50716974       -1.94995767
 C           -3.18754498       -1.67564779       -1.42735774
 C           -1.55943993       -1.83606928       -3.11244768
 C           -2.93560629        0.79578437       -1.61965600
 C           -3.26498503       -0.47947587       -2.23607566
 C           -2.37811909       -0.66195315       -3.37335100
 C           -1.01246751        2.26707912       -2.13352532
 C            0.15234846        1.78537202       -2.86041357
 C           -0.28084699        0.66685168       -3.68603922
 C           -2.16982410        1.53982065       -2.59323659
 C           -1.73115003        0.61152426       -3.62529636
