56
Modified xyz file
 C            1.51541852       -0.08362398        4.14282213
 C            0.72677049       -1.29071280        3.97560074
 C            1.59062855       -2.27309537        3.36028070
 C            2.66585388       -0.19371716        3.26060257
 C            2.73586802       -1.56125340        2.80286687
 C            2.55741721        0.85671225        2.27041071
 C            0.71280754        1.03373224        3.67844258
 C            1.47012226        1.73857976        2.66791871
 C           -0.51287460       -0.92292241        3.30551185
 C           -0.58602519        0.52880177        3.29594318
 C           -0.94462379       -1.62817799        2.17466617
 C            1.04181707       -3.09463095        2.30483508
 C           -0.28402090       -2.79259840        1.78472159
 C            2.75120468       -1.81683364        1.37309605
 C            1.95862243       -3.00774000        1.18221538
 C            2.70699361        0.56608323        0.91429983
 C            2.59593065       -0.76165203        0.46555871
 C            2.41680324        1.60231203        0.03795850
 C            0.76701445        2.38720038        1.65729793
 C            1.44668605        2.60031896        0.46185464
 C           -1.21842774        1.13356134        2.22336542
 C           -0.62604017        2.24779816        1.61759598
 C           -1.78218731       -0.98385826        1.25576569
 C           -2.09595250        0.36197076        1.47491351
 C           -2.02286742       -1.56525029       -0.00090101
 C           -0.23883745       -3.12773347        0.37691783
 C            1.16197221       -3.08835108       -0.01411279
 C           -1.15746802       -2.54815493       -0.49302876
 C            2.09662857       -1.03467930       -0.82576528
 C            1.48672342       -2.27800386       -1.08798216
 C            2.17276790        1.31876117       -1.35823423
 C            2.01295148        0.00171711       -1.77253610
 C            0.72087551        3.05090903       -0.71282490
 C            1.27275438        2.34861462       -1.86094477
 C           -1.33759797        2.89628814        0.60842393
 C           -0.64926389        3.26101253       -0.62095276
 C           -2.97992586        1.02173099        0.63447514
 C           -2.64745637        2.37873177        0.24130126
 C           -2.90501020       -0.94562273       -0.88644520
 C           -3.48989237        0.33206052       -0.53009068
 C           -2.57417874       -0.89207053       -2.30096216
 C           -0.79749756       -2.51298622       -1.84218274
 C            0.61470294       -2.38121559       -2.15856728
 C           -1.54087891       -1.68776067       -2.77792887
 C            1.45340701       -0.23162986       -3.02988366
 C            0.74828954       -1.46879229       -3.26412364
 C           -0.58899669       -1.14408649       -3.73470974
 C            0.46303346        2.06488580       -2.95230119
 C            0.68389253        0.82374012       -3.67158447
 C           -0.61476172        0.27460763       -4.03220533
 C           -1.51091285        2.91470694       -1.74198563
 C           -2.78548382        2.47270353       -1.20185711
 C           -3.35995820        1.22560580       -1.67239969
 C           -2.68598833        0.49673542       -2.73044566
 C           -0.97485831        2.27499670       -2.85728721
 C           -1.63597072        1.10227503       -3.41741966
