56
Modified xyz file
 C            1.40197332       -0.02618210        3.96193725
 C            0.56555576       -1.17945864        3.68070326
 C            1.23620903       -1.97554266        2.67171418
 C            2.45034645        0.01517193        2.95582486
 C            2.38125740       -1.21040309        2.20061198
 C            2.32999667        1.26213008        2.23556924
 C            0.58878122        1.16172570        3.78771570
 C            1.31747891        2.06144071        2.91725472
 C           -0.77549196       -0.70864278        3.40525841
 C           -0.74094138        0.74614137        3.37647005
 C           -1.52095430       -1.38072980        2.45199199
 C            0.47747776       -2.66326220        1.72320191
 C           -0.90403634       -2.44893155        1.66958908
 C            1.13855385       -3.09032148        0.57211377
 C            2.60748541       -1.17864590        0.83345009
 C            2.33573626       -2.36681471        0.17316653
 C            2.36917305        1.25318497        0.83751366
 C            2.43675768        0.03478079        0.13782174
 C            1.95914791        2.40517177        0.16795428
 C            0.58023820        2.95767735        2.16264604
 C            1.11961836        3.35419526        0.87816287
 C           -1.35758796        1.43748113        2.33182178
 C           -0.83748452        2.68143906        1.95900974
 C           -2.37380814       -0.61872585        1.55965135
 C           -2.24337780        0.76573851        1.47938043
 C           -1.60280969       -2.50737693        0.39161910
 C           -2.53630690       -1.39080939        0.33804979
 C            0.38568013       -3.36267914       -0.64093498
 C           -0.91800487       -2.87974676       -0.75885587
 C            2.42514615       -2.40684274       -1.26596596
 C            1.32533785       -3.22703407       -1.74346752
 C            2.16054220        0.01563581       -1.24121772
 C            2.36567613       -1.15042356       -1.97384992
 C            1.45825649        2.30962056       -1.19236466
 C            1.46510049        1.07582137       -1.82942181
 C            0.00171616        3.69435890        0.01928358
 C           -1.22023608        3.28288848        0.69375273
 C            0.28702158        3.16785392       -1.30362939
 C           -2.76601278        1.41208990        0.36152871
 C           -2.23045005        2.69867337       -0.05451222
 C           -2.74788406       -0.72508019       -0.86664310
 C           -3.05731866        0.63545770       -0.83750876
 C           -1.41414038       -2.46419018       -1.99561979
 C           -2.30582692       -1.31329837       -2.05596547
 C            0.87361226       -2.65113823       -2.99069029
 C            1.56818145       -1.38042432       -3.16189037
 C           -0.54216462       -2.40309330       -3.15748069
 C            0.56277146        0.83827606       -2.87450094
 C           -1.87663780       -0.47645219       -3.17428534
 C            0.58286835       -0.38631490       -3.53615485
 C           -0.67909072       -1.07838447       -3.73064924
 C           -0.77499348        2.75554905       -2.09536104
 C           -2.10130055        2.67472336       -1.50233088
 C           -2.73425534        1.46065210       -1.98596958
 C           -0.60819406        1.59246968       -2.94805671
 C           -1.88838862        0.90060060       -3.01744172
