56
Modified xyz file
 C            1.56438014       -0.11084643        4.18542607
 C            0.68727627       -1.26834533        4.17674147
 C            1.39368810       -2.35198441        3.51841337
 C            2.69323213       -0.40918292        3.31965823
 C            2.67101762       -1.83096578        3.05164395
 C            2.65556968        0.52413251        2.20329220
 C            0.83665318        0.99922618        3.59518802
 C            1.60206984        1.48658483        2.47150058
 C           -0.59851568       -0.84815673        3.64965652
 C           -0.52243546        0.57358324        3.34234067
 C           -1.27651547       -1.68208501        2.76953167
 C            0.75843066       -3.03708977        2.40313810
 C           -0.56153831       -2.74849105        2.07486152
 C            2.85680505       -2.27474455        1.68719448
 C            1.73595125       -3.13578277        1.33840623
 C            2.82498069        0.07612395        0.88769576
 C            2.98334975       -1.28865502        0.62566965
 C            2.37854185        0.89868739       -0.15505690
 C            0.91759633        1.99236591        1.37992203
 C            1.59047189        2.00790213        0.17081526
 C           -1.15987514        1.04552282        2.19580162
 C           -0.48164413        1.94063972        1.35195663
 C           -2.18687624       -1.08189766        1.81253246
 C           -2.22330357        0.30393938        1.68156212
 C           -0.96481454       -2.70994963        0.67326200
 C           -2.15554527       -1.88674013        0.60164291
 C            1.33945187       -2.80347144       -0.02161377
 C            2.31249952       -1.85407886       -0.52855918
 C           -0.00657102       -2.60218219       -0.33255410
 C            2.26319440        0.34377276       -1.43398536
 C            1.90645438       -0.99673140       -1.53325702
 C            1.95536673        1.17879685       -2.50568010
 C            1.04504242        2.77763609       -0.84281993
 C            1.42459012        2.49421816       -2.21137077
 C           -1.14328523        2.44700419        0.22480925
 C           -0.38852334        3.01436940       -0.80949106
 C           -2.92464964        0.81629721        0.59984183
 C           -2.45263621        2.03881542       -0.01950411
 C           -2.48106953       -1.25998887       -0.59329759
 C           -3.23359964       -0.09307886       -0.48761048
 C           -0.31707056       -1.87942480       -1.48944902
 C            0.73679525       -1.31023556       -2.21294628
 C           -1.62691374       -1.41969194       -1.69132059
 C            1.17583120        0.63024687       -3.60719703
 C            0.47974869       -0.62636077       -3.39291254
 C            0.26292518        2.71767279       -3.05501170
 C           -0.87223544        2.98959930       -2.18532894
 C            0.19257144        1.62345027       -4.00590112
 C           -2.98109944        2.05063587       -1.37623785
 C           -3.48260213        0.71301321       -1.66314217
 C           -2.11774242        2.44184893       -2.47237905
 C           -1.95605534       -0.81293328       -2.90566537
 C           -0.89195005       -0.45548579       -3.82469709
 C           -1.07221815        0.94017883       -4.20158276
 C           -2.91234643        0.28134677       -2.92009302
 C           -2.25285353        1.43096997       -3.51383969
