56
Modified xyz file
 C            1.16418804       -0.13546252        3.94584836
 C            2.36224773       -0.33346803        3.15157912
 C            2.24227472       -1.63034462        2.50492664
 C            0.32316052       -1.30913229        3.76249765
 C            0.87219559       -2.06226414        2.65376057
 C           -1.04588898       -0.86037075        3.68114705
 C            0.33685050        1.03350540        3.70537156
 C           -1.04397770        0.59507908        3.74838692
 C            0.71985181        1.96971267        2.75109490
 C            2.70461667        0.63643394        2.12522824
 C            1.94710715        1.78834910        1.98255574
 C            2.75892697       -1.50032320        1.16090416
 C            3.09664925       -0.10186348        0.93844641
 C            2.12492615       -2.17555881        0.12669947
 C            0.12129465       -2.25587918        1.49426137
 C            0.79050452       -2.58318782        0.30986515
 C           -1.83168493       -1.23011087        2.52088287
 C           -1.23825849       -1.89784594        1.44816802
 C           -1.97436074        1.07249809        2.73867174
 C           -2.68682287       -0.09598260        2.24287331
 C           -0.27838343        2.55766125        1.86711333
 C           -1.58229982        2.06439642        1.83732934
 C            1.72197760        2.32334965        0.65268675
 C            0.38809472        2.90428115        0.62107218
 C            2.87935028        0.43238572       -0.33520418
 C            2.19424847        1.65021719       -0.47369101
 C            2.56880087       -1.85042294       -1.14910697
 C            2.92072256       -0.46428059       -1.40575512
 C            1.88317997       -2.37249174       -2.31022100
 C            0.02932545       -3.00706021       -0.77644548
 C            0.58855847       -2.98212719       -2.11692409
 C           -1.92221347       -1.92470439        0.22660002
 C           -1.34711642       -2.56324995       -0.86752699
 C           -3.29900634       -0.02203765        1.00342262
 C           -2.95074106       -1.00911896       -0.00902313
 C           -2.34945899        2.26280256        0.69246731
 C           -3.35289758        1.27054023        0.34752399
 C           -0.32417021        2.89057933       -0.57422702
 C           -1.70675169        2.68920203       -0.54390952
 C            1.67535415        2.02742354       -1.71208929
 C            0.37951590        2.69127114       -1.76091249
 C            2.37207025       -0.10125984       -2.69970621
 C            1.73491216       -1.28461761       -3.26315311
 C            1.76475849        1.13344492       -2.85396019
 C           -0.36045819       -2.30160919       -2.98406518
 C           -1.53635580       -1.99105018       -2.19308158
 C            0.33660210       -1.22534624       -3.66116420
 C           -3.03678839       -0.36228373       -1.31041562
 C           -3.29450216        1.04780334       -1.08532062
 C           -2.37993702        2.01566122       -1.65138935
 C           -2.14157834       -0.74216299       -2.30665703
 C           -0.32372670        2.20995008       -2.93525474
 C            0.51147808        1.21618106       -3.58594167
 C           -0.28277516        0.01253695       -3.77173898
 C           -1.64617637        1.64539049       -2.76666605
 C           -1.57741296        0.23496108       -3.13783399
