56
Modified xyz file
 C            1.47198106        0.06938597        3.88132192
 C            0.67906137       -1.13992997        3.74982258
 C            1.26082983       -1.93917964        2.68587319
 C            2.55449911       -0.01340221        2.91872104
 C            2.56062394       -1.35975096        2.38037220
 C            2.42442887        1.09288655        1.98324368
 C            0.62759675        1.18507231        3.49960055
 C            1.21355775        1.81574818        2.33447461
 C           -0.70806816       -0.74386651        3.62558847
 C           -0.73385192        0.69836838        3.39676923
 C           -1.54294345       -1.54526704        2.86193005
 C            0.43620430       -2.38322717        1.64592269
 C           -0.94525354       -2.39777740        1.83725921
 C            0.96158037       -2.51042231        0.35356492
 C            3.06622921       -1.52834001        1.10550441
 C            2.34382105       -2.38801641        0.19409640
 C            2.71304022        0.85192305        0.63705506
 C            3.37597980       -0.33695262        0.33189985
 C            1.95855079        1.50262683       -0.35591084
 C            0.37315833        2.21942669        1.31267241
 C            0.90451842        2.34261114        0.03473776
 C           -1.54889940        1.20875133        2.38626635
 C           -1.01441936        2.12863212        1.47614976
 C           -2.72263938       -0.93278299        2.28480993
 C           -2.69580640        0.49547528        2.03772320
 C           -1.82046949       -2.38409895        0.68105717
 C           -2.98856270       -1.58793936        1.01871783
 C            0.10733323       -2.44199255       -0.76360381
 C           -1.26643008       -2.25897314       -0.58666431
 C            0.62720025       -2.36995611       -2.05873082
 C            2.90792783       -2.11140425       -1.11104640
 C            3.47330938       -0.76866128       -1.04443710
 C            2.04446814       -2.16800118       -2.26552348
 C            2.13683189        1.17726079       -1.71471309
 C            2.82923685        0.02193646       -2.06643586
 C            2.19380763       -0.91157052       -2.97926584
 C            1.26684385        1.70041217       -2.66906602
 C            0.18989621        3.07150660       -0.90681454
 C            0.37310630        2.77817022       -2.30856838
 C           -1.83946956        2.64335148        0.47851095
 C           -1.23051481        3.26715349       -0.68535695
 C           -3.32262721        0.72093349        0.74495700
 C           -3.43521692       -0.57215679        0.08081071
 C           -2.95788824        1.84202251        0.01135232
 C           -2.02217339       -1.65971923       -1.59745074
 C           -3.05328230       -0.69393107       -1.24879652
 C           -0.05616933       -1.55686286       -3.04979687
 C            0.89451412       -0.55983512       -3.52642292
 C            0.52992466        0.78106333       -3.52507292
 C           -1.37401393       -1.19235325       -2.81125462
 C           -0.93460421        2.48031977       -2.87445751
 C           -1.93164302        2.78788406       -1.86644363
 C           -2.85270764        1.75128088       -1.43625036
 C           -2.82500560        0.50036850       -2.04701846
 C           -0.87409447        1.14062833       -3.43234324
 C           -1.80330702        0.18117096       -3.03934018
