56
Modified xyz file
 C            1.40364141       -0.01573029        3.90199648
 C            0.58768640       -1.20951532        3.80562215
 C            1.21702436       -2.10294101        2.84653919
 C            2.44682349       -0.11820338        2.89655271
 C            2.21985682       -1.32700882        2.13534230
 C            2.46943272        1.13236070        2.17293921
 C            0.56593531        1.11615935        3.54359398
 C            1.28718658        1.89212859        2.55956143
 C           -0.78332925       -0.79145363        3.56410312
 C           -0.73875984        0.60956828        3.17669353
 C           -1.60704885       -1.65216976        2.85593240
 C            0.39970821       -2.95778602        2.12440646
 C           -1.03458478       -2.89428324        2.35947808
 C            0.59174059       -3.06809810        0.68733755
 C            2.15817693       -1.22469105        0.74687880
 C            1.37563059       -2.12911753        0.01558713
 C            2.79643997        1.12074816        0.82220954
 C            2.69311519       -0.09322940        0.11757833
 C            2.55047612        2.31202567        0.14836039
 C            0.57460905        2.52455371        1.54385255
 C            1.33779621        3.03037099        0.49398164
 C           -1.27847447        1.00290121        1.95374184
 C           -0.74355701        2.11465061        1.28796303
 C           -2.43941145       -1.11307442        1.79300596
 C           -2.19488468        0.16910540        1.30096874
 C           -1.70342470       -3.22530815        1.11542528
 C           -0.67993988       -3.47618343        0.11368323
 C           -2.69636228       -2.19493232        0.85773590
 C           -0.95609197       -3.14439630       -1.20417695
 C            1.20676808       -1.96031509       -1.36322453
 C            0.04475502       -2.42715387       -1.97779766
 C            2.80777973       -0.10545063       -1.27122397
 C            1.95244444       -0.99541831       -2.03230503
 C            2.73027883        2.38272501       -1.28440806
 C            2.90000522        1.14447679       -2.00757492
 C            0.70074154        3.44889921       -0.74034909
 C            1.58160945        3.07999802       -1.84131631
 C           -1.41366567        2.61290505        0.17353408
 C           -0.66844945        3.28534449       -0.88095136
 C           -2.68444593        0.51989069        0.04076669
 C           -2.43791238        1.79643843       -0.45456092
 C           -2.98820383       -1.87928293       -0.46085007
 C           -2.25018284       -2.55726675       -1.51561570
 C           -3.09745997       -0.48068649       -0.84410573
 C           -0.65063002       -1.55985758       -2.91814102
 C           -2.06609445       -1.61726849       -2.60743854
 C           -2.74268936       -0.38753587       -2.25494112
 C            1.30063547       -0.20416398       -3.06650940
 C            1.91024952        1.11142076       -3.07291320
 C            1.06171626        2.27979463       -2.93967603
 C           -0.07432424       -0.33505908       -3.24342393
 C           -1.19309317        2.83399978       -2.15800258
 C           -2.33560518        1.98043968       -1.89206527
 C           -2.22057887        0.80396171       -2.73170480
 C           -0.31234730        2.13279636       -3.07889462
 C           -0.88071167        0.80991795       -3.31320093
