56
Modified xyz file
 C            1.46897689        0.06871569        4.10982087
 C            0.66583849       -1.10590194        3.83285663
 C            1.51892720       -2.03302338        3.12946472
 C            2.59401036        0.04743303        3.18713450
 C            2.68382302       -1.28863035        2.65913653
 C            2.41039272        1.14667285        2.25997630
 C            0.67132950        1.23134234        3.77656075
 C            1.47979152        2.05757818        2.90471849
 C           -0.55662727       -0.66889231        3.18308170
 C           -0.61358914        0.78119911        3.26326845
 C           -0.96786599       -1.28241566        2.00697286
 C            0.98080959       -2.71856876        1.97232386
 C           -0.30786708       -2.42514208        1.52307579
 C            2.72970750       -1.46458139        1.22224428
 C            2.04583638       -2.71814535        0.99467819
 C            2.27821850        0.90283881        0.88309411
 C            2.44633421       -0.39137166        0.36698715
 C            1.71235454        1.90305821        0.08528098
 C            0.80287726        2.94136195        2.09328651
 C            1.24053910        3.05629176        0.72306694
 C           -1.17058937        1.50867738        2.20803304
 C           -0.63708777        2.77702278        1.98501968
 C           -1.82695414       -0.57901366        1.16911397
 C           -1.77259309        0.81995312        1.13834311
 C           -2.46811628       -1.27145575        0.15505759
 C           -0.67594205       -2.93329030        0.27303525
 C           -1.89874566       -2.53618944       -0.27191789
 C            1.70317104       -3.02557379       -0.30197875
 C            0.33622516       -3.43738147       -0.55526191
 C            2.02736143       -0.68584365       -0.93751042
 C            1.98077321       -2.03015471       -1.31779136
 C            1.29637619        1.60694299       -1.22240059
 C            1.34397401        0.28314364       -1.69023621
 C            0.64943265        2.59023365       -1.98014848
 C            0.20501741        3.85083045        0.10178880
 C           -1.02827509        3.51547733        0.80632551
 C           -0.04208185        3.66699416       -1.30394068
 C           -2.16095414        1.50832093       -0.02797218
 C           -1.89171936        2.87296966       -0.15569999
 C           -1.46073198        3.38501444       -1.43977644
 C           -2.91119338       -0.55415441       -1.02388155
 C           -2.58954757        0.79236391       -1.15576069
 C           -2.16086610       -2.68359586       -1.69479176
 C           -2.74012127       -1.43763403       -2.17036025
 C            0.20417258       -3.38616707       -1.99937738
 C            1.20013546       -2.42826687       -2.46804019
 C           -1.07107808       -3.03100071       -2.58180214
 C            0.66674046       -0.07351190       -2.87753821
 C           -1.95036067       -0.97465486       -3.30127383
 C            0.50577048       -1.41242107       -3.21439188
 C           -0.84221538       -1.90089991       -3.46412870
 C           -0.25077581        2.18572902       -3.03367921
 C           -1.59801572        2.52917158       -2.59241431
 C           -2.30287416        1.27379295       -2.43651390
 C           -0.27905426        0.79354189       -3.40831711
 C           -1.67307423        0.38121051       -3.38684056
