56
Modified xyz file
 C            1.49938766       -0.09470797        3.89807013
 C            0.71510632       -1.28473231        3.64606632
 C            1.25210573       -1.94900234        2.46824602
 C            2.60848723       -0.10158859        2.96700447
 C            2.42686997       -1.21024888        2.04440840
 C            2.69039002        1.22780856        2.40453964
 C            0.66266218        1.04733874        3.56337847
 C            1.36446728        1.81755926        2.56239132
 C           -0.67104877       -0.87009829        3.60147535
 C           -0.65410835        0.54080228        3.24501566
 C           -1.53995371       -1.68714150        2.90351709
 C            0.34287655       -2.41041036        1.52006608
 C           -0.95688776       -2.63953616        1.96936662
 C            0.56022663       -2.12042344        0.16272012
 C            2.63377199       -0.97099453        0.69096102
 C            1.77934479       -1.55842135       -0.24749920
 C            3.30128626        1.35070842        1.16899776
 C            3.37714318        0.15757806        0.33326228
 C            2.84368051        2.42135609        0.31000877
 C            0.68207827        2.25399004        1.42599295
 C            1.44831780        2.81212424        0.40612731
 C           -1.27869497        0.93618667        2.06129049
 C           -0.58987411        1.73402676        1.12630618
 C           -2.61725951       -1.05951161        2.16979663
 C           -2.41317750        0.22658406        1.66060973
 C           -1.99123477       -2.97360839        1.01518455
 C           -3.12383318       -2.10562513        1.30193163
 C           -0.47182101       -2.29576323       -0.77667496
 C           -1.69572995       -2.83067998       -0.39033415
 C           -0.36765434       -1.70979899       -2.03918728
 C            2.01021734       -1.33948388       -1.60626532
 C            0.90350148       -1.45052154       -2.54110431
 C            3.40603980        0.59518531       -1.05072616
 C            3.09968094        2.01723308       -1.05825090
 C            2.83441239       -0.21284226       -2.02303844
 C            0.92154476        2.87425729       -0.94272874
 C            1.98819596        2.48624351       -1.86251322
 C           -1.16934172        1.99304549       -0.12730970
 C           -0.38054638        2.45594005       -1.18699386
 C           -3.11483294        0.64599882        0.53511249
 C           -2.47083769        1.56181415       -0.38956974
 C           -3.71863489       -1.73253458        0.03864813
 C           -2.89474444       -2.31203490       -1.01382848
 C           -3.86673649       -0.32130001       -0.25196910
 C           -1.49423762       -1.10877973       -2.62802672
 C           -2.83036972        1.15355735       -1.74249683
 C           -2.74530958       -1.31319445       -2.05298905
 C           -3.49072614       -0.13542770       -1.63737138
 C           -0.74888652        2.16457255       -2.49907328
 C           -1.33351562        0.08427086       -3.32736305
 C           -1.88129243        1.29665428       -2.74125238
 C            1.08002167       -0.43534829       -3.56484055
 C            2.17856316        0.42050176       -3.15690795
 C            1.66238563        1.77482219       -3.00915754
 C           -0.04132021        0.41760465       -3.88820779
 C            0.27984483        1.76599588       -3.44481548
