56
Modified xyz file
 C            1.62782074       -0.00745607        3.89034474
 C            0.75665124       -1.15945799        3.73634695
 C            1.26466696       -1.95840223        2.63128053
 C            2.61754873       -0.06522625        2.83264837
 C            2.53101164       -1.37523614        2.21600066
 C            2.44861261        1.10238381        1.98311318
 C            0.82329098        1.17958138        3.67372989
 C            1.30852482        1.85130035        2.47629004
 C           -0.61142149       -0.67618806        3.67930711
 C           -0.57130546        0.78166589        3.72179155
 C           -1.50223244       -1.31594848        2.82534923
 C            0.37481148       -2.42495350        1.66256135
 C           -0.99931393       -2.30755109        1.88494194
 C            0.84504719       -2.73136465        0.38119502
 C            2.90018983       -1.48039940        0.88547710
 C            2.13613363       -2.35117237        0.01248255
 C            2.60112307        0.94419827        0.61346487
 C            3.13166988       -0.25590726        0.13621582
 C            1.86093385        1.74903317       -0.25101380
 C            0.37470267        2.35246744        1.57077337
 C            0.66111284        2.33240269        0.19469576
 C           -1.47189378        1.51111248        2.95860944
 C           -0.94574184        2.47453685        2.00499336
 C           -2.53249526       -0.54709305        2.14297810
 C           -2.57630290        0.83154918        2.30085925
 C           -1.91912793       -2.34048753        0.76073790
 C           -2.71775677       -1.12792193        0.81829628
 C           -0.05703285       -3.12766760       -0.60556968
 C           -1.46110821       -2.78331054       -0.46674684
 C            0.29213908       -2.95728958       -2.00739242
 C            2.40242874       -1.91268580       -1.35138615
 C            3.00372881       -0.58734954       -1.27381975
 C            1.48193925       -2.20095797       -2.35130941
 C            2.14477534        1.67105171       -1.61086946
 C            2.60425415        0.40587433       -2.15706572
 C            1.23501755        2.25663940       -2.56675478
 C           -0.30307222        2.78413895       -0.72775689
 C           -0.04407563        2.73430622       -2.09515451
 C           -1.99472555        2.72778763        1.04583316
 C           -2.97364064        1.65630216        1.17401057
 C           -1.64235403        2.82393966       -0.35101245
 C           -2.80962119       -0.30207789       -0.30488053
 C           -3.11486573        1.04716516       -0.13814647
 C           -2.59587021        2.01136333       -1.08741885
 C           -1.84522358       -2.05408344       -1.66180335
 C           -0.84313606       -2.33898448       -2.67386115
 C           -2.35084968       -0.75911871       -1.54621452
 C            1.09627053       -1.16769636       -3.30141298
 C            1.73372163        0.07105896       -3.27169843
 C            0.99217683        1.27272573       -3.61367743
 C           -0.34883272       -1.24891792       -3.49282991
 C           -1.06761438        2.17888883       -2.96641057
 C           -2.23769129        1.57505974       -2.35186842
 C           -2.16664971        0.14274346       -2.59976267
 C           -0.44081779        1.18166765       -3.81490236
 C           -1.10553081       -0.08603860       -3.57358862
