56
Modified xyz file
 C            1.51906815       -0.06155731        4.12059981
 C            0.63601635       -1.20445859        4.26347353
 C            1.12873666       -2.24192915        3.38390763
 C            2.45105394       -0.34151001        3.03876320
 C            2.20733769       -1.68779052        2.57827320
 C            2.35262648        0.73662032        2.08090694
 C            0.70745030        1.06148850        3.70070871
 C            1.38970575        1.69908831        2.58885282
 C           -0.68003020       -0.82454598        3.77180440
 C           -0.64279490        0.58602236        3.46018663
 C           -0.01873232       -2.78220925        2.68055216
 C           -1.04595757       -1.74958757        2.71638501
 C            0.23224594       -3.39057676        1.46705101
 C            2.18324282       -1.95378850        1.21174548
 C            1.51527187       -3.11580129        0.84086130
 C            2.31883513        0.44333525        0.72084202
 C            2.27390114       -0.89543913        0.28236087
 C            1.91235064        1.46315550       -0.14184519
 C            0.60377793        2.35691301        1.65181813
 C            1.12146851        2.50192048        0.36608683
 C           -1.25821023        1.03754546        2.30224413
 C           -0.78050378        2.22878489        1.77744592
 C           -1.54689848       -1.24016729        1.51289158
 C           -1.83876960        0.12574326        1.40814014
 C           -0.73390085       -3.21564572        0.40739396
 C           -1.45402295       -2.01775460        0.35422337
 C            1.36606919       -3.42906625       -0.55902421
 C           -0.04959909       -3.69528837       -0.77464881
 C            2.14150124       -1.16379592       -1.09438285
 C            1.76076788       -2.43485445       -1.52907725
 C            2.00341599        1.25510421       -1.51064293
 C            2.06881806       -0.10605869       -2.00361193
 C            1.17485012        2.02517381       -2.42252034
 C            0.43632271        3.35218058       -0.50023830
 C            0.44974447        3.10212650       -1.93213484
 C           -1.57846565        2.86146512        0.84267763
 C           -0.92048302        3.70644941       -0.13179900
 C           -2.36053467        0.63122266        0.21029503
 C           -2.50633864        2.02148630        0.10885022
 C           -1.80269066       -1.46145329       -0.88415675
 C           -2.32038773       -0.16294072       -0.94823409
 C           -0.40332207       -3.12483902       -2.04832028
 C            0.80692062       -2.55088218       -2.61677650
 C           -1.39908104       -2.07841107       -2.07534476
 C            1.18199838       -0.20414768       -3.15973714
 C            0.55954132        1.09389348       -3.36069667
 C            0.41278028       -1.34835131       -3.32609412
 C           -1.03575648       -1.24638793       -3.20314942
 C           -2.50333873        0.40842520       -2.21443941
 C           -0.81016779        1.15251809       -3.61023648
 C           -1.63270393       -0.00326133       -3.29793505
 C           -0.88648678        3.36037913       -2.44677788
 C           -1.74014005        3.71145094       -1.32713649
 C           -2.72812519        2.65365330       -1.17789052
 C           -1.56636767        2.31772497       -3.18789405
 C           -2.67200946        1.83862886       -2.36459641
