56
Modified xyz file
 C            1.47066219       -0.18947159        4.59313397
 C            0.65564459       -1.38303633        4.46413420
 C            1.26864269       -2.22173015        3.45368681
 C            2.54478714       -0.27396275        3.61470791
 C            2.31900434       -1.45406130        2.80556737
 C            2.61783629        1.00405530        2.95422296
 C            0.64802750        0.94779638        4.22176047
 C            1.45854232        1.78685164        3.37145416
 C           -0.64205609       -0.98613954        3.94490800
 C           -0.60551713        0.44227010        3.69109800
 C            0.20065071       -2.73082884        2.61974095
 C           -0.95623492       -1.86999182        2.83336930
 C            0.52262716       -3.04954449        1.31379760
 C            2.30945163       -1.37083372        1.40736823
 C            1.69333553       -2.41202655        0.72023616
 C            2.64686483        1.03641264        1.50519060
 C            2.49756277       -0.13668992        0.75713200
 C            0.86063458        2.32102859        2.16451777
 C            1.85436165        2.18556050        1.12621514
 C           -1.06428633        0.89701959        2.45521487
 C           -0.45300344        1.99749241        1.83126158
 C           -1.60240230       -1.33351871        1.71764859
 C           -1.85849996        0.03973185        1.69161259
 C           -0.51908629       -2.95507338        0.31717410
 C           -1.55052877       -2.03726717        0.50881637
 C            1.43589079       -2.28816125       -0.70181345
 C            0.17306652       -2.96141235       -0.95130576
 C            2.15449525        0.01217232       -0.59986851
 C            1.68653499       -1.08073568       -1.34445129
 C            1.40294697        2.23917877       -0.17523079
 C            1.91429631        1.30811933       -1.07033809
 C           -0.87677548        2.35359865        0.54553586
 C            0.10606071        2.69595167       -0.39256720
 C           -2.54120902        0.57213573        0.61080337
 C           -2.09494347        1.85113432        0.09496415
 C           -2.20153701       -1.52429181       -0.61798729
 C           -2.82826590       -0.28125934       -0.52744238
 C           -0.54417927       -2.59825654       -2.07149974
 C           -1.87218420       -2.04279373       -1.87313890
 C            1.10420429       -0.86591795       -2.60111542
 C            0.09902279       -1.73602366       -3.03963454
 C            1.63602784        1.51104897       -2.41531109
 C            1.28433188        0.36538840       -3.22943373
 C           -0.25199295        2.96322808       -1.71080602
 C            0.69686382        2.57250748       -2.73950890
 C           -2.41830789        1.89574840       -1.32142498
 C           -2.93233693        0.58224885       -1.69632686
 C           -1.57500469        2.58716817       -2.18069212
 C           -2.19078572       -1.29435631       -3.07980070
 C           -0.97816414       -1.24978225       -3.88468942
 C           -2.68492304        0.06276286       -2.96254904
 C            0.34250051        0.81976506       -4.24637274
 C           -0.04638465        2.18001043       -3.92013355
 C           -1.45580775        2.16065090       -3.56543740
 C           -0.87640022        0.07037724       -4.46488222
 C           -1.98406099        0.86575252       -3.95151094
