56
Modified xyz file
 C            1.21547801        0.02769835        4.01274552
 C            2.35134835       -0.12202895        3.12593604
 C            2.33609629       -1.48616112        2.63362369
 C            0.37350000       -1.15102319        3.85769399
 C            1.01366260       -2.02786040        2.89139033
 C           -0.98576925       -0.70293376        3.61528276
 C            0.37349925        1.19378710        3.85810826
 C           -1.00579639        0.73967214        3.76069352
 C            0.60418661        2.08844101        2.73649337
 C            2.46937388        0.75087012        1.96805182
 C            1.51585852        1.74085015        1.73514822
 C            2.81222863       -1.46281352        1.26504212
 C            2.91782852       -0.06854875        0.85604505
 C            2.26110079       -2.36593517        0.37182029
 C            0.27714156       -2.53724098        1.82161801
 C            0.95441933       -2.94081182        0.67162068
 C           -1.71357799       -1.28618286        2.58821420
 C           -1.09803780       -2.31431774        1.76039804
 C           -2.54026660       -0.45616464        1.72121095
 C           -1.65297262        1.54682156        2.73858515
 C           -0.70372578        2.58270295        2.35424227
 C           -2.42811924        0.93329972        1.75250302
 C           -0.84466714        3.18302498        1.11496175
 C            1.28802641        2.17226280        0.42569442
 C            0.26162019        3.08745908        0.17788200
 C            2.54266743        0.28607243       -0.43760336
 C            1.90193127        1.51262808       -0.64592900
 C            2.26420458       -2.02882383       -1.03668029
 C            2.48198037       -0.70879639       -1.42106354
 C            0.23502697       -3.08180731       -0.58853549
 C            1.18094628       -2.77222946       -1.65301026
 C           -1.77569760       -2.29908930        0.47244301
 C           -2.65974926       -1.14196306        0.44287709
 C           -1.08981059       -2.65536702       -0.68327840
 C           -2.78276445       -0.40676100       -0.73419013
 C           -2.75342899        1.66257549        0.61192229
 C           -2.05562384        2.91210356        0.36446286
 C           -2.90703680        0.97971574       -0.66591549
 C           -0.29694197        3.20393635       -1.15976668
 C           -1.72448675        2.97492812       -1.04771687
 C           -2.29107554        1.80647723       -1.69651979
 C            1.62678791        1.92954020       -1.94614214
 C            0.37600487        2.61383921       -2.21573553
 C            2.21562202       -0.35868351       -2.74076074
 C            1.84719598        1.00830413       -3.04586458
 C            0.71089381       -2.35679184       -2.89109617
 C            1.36665814       -1.23097504       -3.53895347
 C           -1.58249302       -2.20411109       -1.90438429
 C           -2.38458617       -0.99022744       -1.93533155
 C           -0.71921816       -2.19797283       -3.07383934
 C           -1.57576389        1.19084560       -2.71928270
 C           -0.36652463        1.76366696       -3.13390436
 C            0.62741365        0.97321683       -3.84148142
 C            0.34143336       -0.40952338       -4.16201604
 C           -1.85849896       -0.14625539       -2.99630794
 C           -0.94750217       -0.95333911       -3.79140116
