56
Modified xyz file
 C            1.58465136        0.19831066        4.05929002
 C            0.79813019       -1.00752535        3.88809544
 C            1.60869869       -1.93737747        3.13474605
 C            2.67499797        0.14756917        3.09701754
 C            2.71123970       -1.18918967        2.54935613
 C            2.50333682        1.26567357        2.18913806
 C            0.74569395        1.32473192        3.69917358
 C            1.50264597        2.14233682        2.77330268
 C           -0.49876692       -0.63286627        3.34417826
 C           -0.54252673        0.81794145        3.25218583
 C           -1.04390852       -1.38440637        2.30802701
 C            0.96820306       -2.66213325        2.05997270
 C           -0.40916083       -2.57355441        1.91192804
 C            2.62727967       -1.35528772        1.11046500
 C            1.77110822       -2.49480804        0.86127805
 C            2.48006873        1.05516775        0.80780722
 C            2.49172174       -0.25024421        0.28472007
 C            2.05621468        2.11072550       -0.00722100
 C            0.77950981        2.94586096        1.91058519
 C            1.27280536        3.11917692        0.55787786
 C           -1.12840086        1.42306594        2.13838359
 C           -0.64395036        2.67823091        1.77104310
 C           -1.92263696       -0.74785802        1.42661220
 C           -1.78139297        0.62325074        1.18552795
 C           -2.66749079       -1.52668985        0.54978540
 C           -0.92579440       -3.25556542        0.82116109
 C           -2.24508386       -2.89702302        0.35258863
 C            1.10859105       -2.60140221       -0.36315986
 C           -0.06826538       -3.35051848       -0.35214458
 C            2.07074312       -0.46592755       -1.02254129
 C            1.26082451       -1.57902595       -1.32183276
 C            2.05243293        1.93629557       -1.39115790
 C            2.18377222        0.59015289       -1.91275499
 C            1.05714037        2.62137493       -2.20645760
 C            0.15464172        3.65695490       -0.19423208
 C           -1.05580513        3.26437018        0.51535191
 C           -0.00112164        3.26928088       -1.58125957
 C           -2.17563535        1.15806440       -0.05545117
 C           -1.84681785        2.46825347       -0.39276220
 C           -1.35478203        2.74613339       -1.72886581
 C           -3.02828094       -0.98325480       -0.74734157
 C           -2.63820710        0.31208799       -1.06707872
 C           -2.28978951       -3.19201447       -1.06635314
 C           -0.91786928       -3.36100483       -1.51928274
 C           -2.82457934       -2.02530924       -1.73854581
 C            0.48192400       -1.59822271       -2.49847336
 C           -0.67352669       -2.37981907       -2.55084017
 C           -1.94592134       -1.73414480       -2.85126852
 C            1.50027255        0.53129611       -3.18197519
 C            0.78733993        1.78790101       -3.36294396
 C            0.56926380       -0.54998268       -3.41290901
 C           -1.63584662        1.83577077       -2.73898367
 C           -2.36844387        0.62262521       -2.40666079
 C           -1.90975915       -0.42769050       -3.30872388
 C           -0.59111136        1.47195534       -3.68363933
 C           -0.66837634        0.03828699       -3.89473795
