56
Modified xyz file
 C            1.51564651       -0.09923544        4.58152409
 C            0.66495883       -1.26602386        4.71566299
 C            1.27453443       -2.34227999        3.95444316
 C            2.57088868       -0.42203105        3.63262414
 C            2.39869451       -1.79076840        3.21267585
 C            2.55659086        0.59823353        2.61009467
 C            0.71715194        0.96627221        3.99709174
 C            1.48619628        1.53502423        2.91822899
 C           -0.61205999       -0.95320491        4.09476431
 C           -0.58664490        0.43775045        3.67002173
 C            0.29928254       -2.79649331        2.98177133
 C           -0.88456884       -1.96716331        3.08942358
 C            2.17386333       -2.05323778        1.79905118
 C            0.95853033       -2.84167376        1.69474789
 C            2.73467657        0.24950328        1.27118544
 C            2.39028250       -1.04687430        0.84442791
 C            2.58107670        1.29719374        0.37648009
 C            0.81356309        2.08616164        1.83477600
 C            1.60100824        2.31638375        0.71991356
 C           -1.12367441        0.74240971        2.42241513
 C           -0.53261581        1.74095836        1.62667030
 C           -1.48734493       -1.56114333        1.90317617
 C           -1.89545482       -0.23552628        1.80034827
 C            0.18545100       -2.63987586        0.56653336
 C           -1.13977064       -2.22185955        0.72301815
 C            1.82248096       -1.23223684       -0.43299677
 C            0.84788199       -2.22613142       -0.57564123
 C            2.41410158        1.01750085       -1.03061764
 C            1.94237866       -0.23103436       -1.41099406
 C            0.97711952        2.74491344       -0.50640668
 C            1.78557080        2.19969012       -1.58429175
 C           -1.14546105        2.05949729        0.40069154
 C           -0.40859102        2.69554891       -0.61197452
 C           -2.62128862        0.12639914        0.68153580
 C           -2.33960386        1.41286997        0.07663273
 C           -1.86352989       -1.92369142       -0.43650661
 C           -2.74016356       -0.83483880       -0.40198119
 C            0.14136279       -2.33150362       -1.75849152
 C           -1.30604175       -2.30882546       -1.65632806
 C            1.25221634       -0.34306981       -2.62696462
 C            0.50193705       -1.48992561       -2.87487368
 C            1.21382148        2.11142568       -2.83795175
 C            1.08664588        0.79216110       -3.43359149
 C           -0.95855962        2.85881996       -1.88629548
 C           -0.06174987        2.77394179       -3.02871648
 C           -2.77926787        1.33641725       -1.30475795
 C           -3.02233882       -0.07127852       -1.61097360
 C           -2.18256676        2.16192800       -2.24386513
 C           -1.82081374       -1.76307527       -2.89976176
 C           -0.67343038       -1.43472509       -3.73085719
 C           -2.67262171       -0.59289489       -2.85186415
 C           -0.01484782        0.86848985       -4.38471063
 C           -0.75062836        2.09143537       -4.10742313
 C           -2.06379521        1.70921348       -3.62044302
 C           -0.97892064       -0.20914561       -4.43614869
 C           -2.24155852        0.29962474       -3.91450136
