56
Modified xyz file
 C            1.54643448        0.06488419        3.96967741
 C            0.73118031       -1.11854839        3.75297445
 C            1.32565071       -1.86524874        2.65486087
 C            2.59920271        0.05127765        2.97455288
 C            2.63476781       -1.28089046        2.40480341
 C            2.39277909        1.16860127        2.06384814
 C            0.71236469        1.21758740        3.70236700
 C            1.20106877        1.86840167        2.49384477
 C           -0.64983105       -0.68651048        3.63747838
 C           -0.66800074        0.77022689        3.72646065
 C           -1.46538712       -1.32549782        2.71066140
 C            0.52350154       -2.24599599        1.57359144
 C           -0.86090905       -2.18920677        1.70322217
 C            1.09888892       -2.40626491        0.30668417
 C            3.16011973       -1.39838540        1.13340816
 C            2.48497410       -2.26803525        0.19685015
 C            2.61143015        0.94270809        0.70948987
 C            3.38377483       -0.17170265        0.38859310
 C            1.69975766        1.44103665       -0.23769952
 C            0.26776015        2.28203262        1.55260185
 C            0.52724238        2.10275535        0.18423841
 C           -1.57539243        1.48204605        2.95616897
 C           -1.04720817        2.43015509        1.99058701
 C           -2.54668976       -0.58899282        2.07499145
 C           -2.65592044        0.77807134        2.28667139
 C           -1.68599034       -2.12822114        0.51484088
 C           -2.72563144       -1.13336669        0.73566043
 C            0.28999212       -2.38350764       -0.84716168
 C           -1.09616546       -2.21474718       -0.73883821
 C            0.87041865       -2.37754702       -2.11921961
 C            3.08325915       -1.95125248       -1.08262747
 C            3.52492165       -0.56402094       -0.99314427
 C            2.27609620       -2.07359439       -2.27097133
 C            1.91273825        1.18254846       -1.60425545
 C            2.79878415        0.17751055       -1.99498771
 C            2.35202743       -0.80131549       -2.96749070
 C            0.98423847        1.61934237       -2.54473287
 C           -0.42339333        2.53116050       -0.75755545
 C           -0.17940158        2.36178924       -2.11388530
 C           -2.09534413        2.67775604        1.03186417
 C           -3.09476367        1.62836296        1.19664601
 C           -1.74769145        2.72456212       -0.36826081
 C           -3.11612217       -0.31550538       -0.32612083
 C           -3.32625042        1.04942118       -0.11613653
 C           -2.79605342        2.00935917       -1.07238552
 C           -1.83226477       -1.76196978       -1.83496245
 C           -2.87040134       -0.76362095       -1.62226985
 C            0.19752757       -1.68074436       -3.19938074
 C            1.07189474       -0.58297041       -3.60808246
 C            0.56995531        0.71125483       -3.61050161
 C           -1.16934180       -1.46320133       -3.09467554
 C           -1.28920323        1.98959993       -2.98122030
 C           -2.55028072        1.59884939       -2.37242064
 C           -2.78297979        0.20464465       -2.70329440
 C           -0.84862717        0.90097222       -3.83400275
 C           -1.73350674       -0.22605302       -3.61135497
