56
Modified xyz file
 C            1.53028571        0.21341694        4.03313155
 C            0.71056970       -0.97524439        3.89212211
 C            1.49261583       -1.94869211        3.16470664
 C            2.63871299        0.09314546        3.09865343
 C            2.63803514       -1.25938190        2.58984979
 C            2.53301005        1.18755566        2.15361011
 C            0.73256170        1.35096846        3.61558841
 C            1.51137189        2.09507395        2.64687713
 C           -0.57566289       -0.57859959        3.34044300
 C           -0.57688163        0.86907559        3.20883724
 C           -1.14929964       -1.33994546        2.32393186
 C            0.84079367       -2.66392838        2.09025440
 C           -0.53159930       -2.53720508        1.92138781
 C            2.58967486       -1.46286011        1.15347090
 C            1.66835477       -2.55014028        0.90173632
 C            2.59482786        0.93989780        0.78149063
 C            2.56274395       -0.37673425        0.29258718
 C            2.25305968        1.98223974       -0.08190799
 C            0.81819867        2.84866814        1.71424771
 C            1.35930025        2.95597656        0.37083169
 C           -1.17246717        1.44434789        2.08785636
 C           -0.61023145        2.61069370        1.55880859
 C           -2.07219256       -0.71876158        1.47449590
 C           -2.02109866        0.66873780        1.29251370
 C           -2.82821574       -1.50598181        0.60836876
 C           -1.05146071       -3.20996471        0.82534151
 C           -2.37346479       -2.85597428        0.35833232
 C            1.02376701       -2.63400927       -0.33455705
 C           -0.19074704       -3.32241627       -0.34435142
 C            2.17187338       -0.60186522       -1.02297226
 C            1.26574517       -1.64310725       -1.30959353
 C            2.39194484        1.78189109       -1.45201755
 C            2.39799293        0.41524506       -1.94091472
 C            1.57683199        2.56992311       -2.36063044
 C            0.25839101        3.37632621       -0.48354969
 C           -0.97505496        3.05439174        0.22093445
 C            0.35424253        3.16221061       -1.85198636
 C           -2.61608951        1.24351072        0.16943560
 C           -2.00365603        2.40697145       -0.44709335
 C           -3.28659085       -0.95431230       -0.65819672
 C           -3.11160823        0.39718793       -0.90019254
 C           -2.40402211       -3.08796309       -1.07392325
 C           -1.03059766       -3.26739463       -1.51634854
 C           -2.91681313       -1.88517721       -1.70333848
 C            0.47690001       -1.59763434       -2.48002675
 C           -0.74704077       -2.25688232       -2.50508263
 C           -1.94784564       -1.45639543       -2.69272475
 C            1.70528561        0.38827374       -3.20612013
 C            1.23425970        1.73259402       -3.49436338
 C            0.58676944       -0.51149478       -3.34089563
 C           -0.76180509        2.56140683       -2.57094964
 C           -1.89213720        2.14803234       -1.87585458
 C           -2.46351951        0.82974514       -2.13533508
 C           -1.78619520       -0.09590215       -2.94299178
 C           -0.21464220        1.68302855       -3.58497287
 C           -0.60718068        0.28743197       -3.57895397
