56
Modified xyz file
 C            1.56662702       -0.21269916        4.45279016
 C            0.66993938       -1.33404633        4.65958321
 C            1.16393395       -2.44372434        3.86310341
 C            2.52729111       -0.58925633        3.42632811
 C            2.26552856       -1.95701108        3.04813564
 C            2.47585067        0.42224251        2.38983189
 C            0.78054978        0.88907858        3.92478374
 C            1.48928112        1.41002795        2.78137825
 C           -0.63364621       -0.95837805        4.13597262
 C           -0.57495829        0.43087264        3.71092807
 C            0.10188119       -2.84216095        2.95760273
 C           -1.02738025       -1.95351594        3.15484868
 C            1.94280988       -2.23012239        1.65965729
 C            0.66428296       -2.91775332        1.62199512
 C            2.50053455        0.05096564        1.04322865
 C            2.18727584       -1.26737214        0.68007382
 C            2.21488241        1.05714570        0.11566986
 C            0.75678640        1.97471004        1.75210067
 C            1.42392158        2.12870022        0.55070237
 C           -1.20113853        0.77379155        2.51398126
 C           -0.62722279        1.75542967        1.69179508
 C           -1.69277014       -1.51696321        2.01669732
 C           -2.04369796       -0.16800735        1.93052015
 C           -0.17487866       -2.64057460        0.54845351
 C           -1.47240541       -2.21203947        0.82708685
 C            1.60196521       -1.47207755       -0.56760457
 C            0.41125891       -2.20645604       -0.63836756
 C            2.22169205        0.73182337       -1.24305550
 C            1.90622027       -0.58564905       -1.59540471
 C            2.06806129        1.77121008       -2.16254212
 C            0.81452788        2.94078623       -0.38553399
 C            1.32083649        2.93409064       -1.74018275
 C           -1.31116266        2.14394495        0.52534879
 C           -0.63491937        2.89877679       -0.43936278
 C           -2.82582989        0.23158344        0.85708239
 C           -2.45995193        1.44717138        0.14577783
 C           -2.31794373       -1.93886905       -0.24080624
 C           -3.17140834       -0.76970789       -0.13477340
 C           -0.39609045       -2.08741982       -1.77021557
 C           -1.77676521       -1.95914149       -1.59238114
 C            1.41956535       -0.88686429       -2.86454130
 C            0.18049329       -1.63642287       -2.95505094
 C            1.67342757        1.49294873       -3.52976756
 C            1.41425071        0.12315084       -3.90453673
 C            0.18293691        3.06410236       -2.62986630
 C           -1.00747517        2.77806926       -1.84310119
 C            0.46811953        2.26763613       -3.80475320
 C           -2.74826228        1.24033983       -1.26987040
 C           -3.21525088       -0.12366365       -1.43185182
 C           -2.52351470       -0.97844019       -2.37440897
 C           -1.89140423        1.77072912       -2.22998294
 C           -0.66320177       -0.96500188       -3.92593785
 C            0.11585854        0.08651819       -4.55525039
 C           -0.54589267        1.34969173       -4.27466546
 C           -1.89942808       -0.37791261       -3.45540534
 C           -1.69399086        1.06571343       -3.42623676
