56
Modified xyz file
 C            1.51771566       -0.03277525        3.91869089
 C            0.75774414       -1.23417688        3.62694884
 C            1.45308465       -1.97247730        2.58400875
 C            2.68236217       -0.02747003        3.05407836
 C            2.70385936       -1.28103365        2.31695743
 C            2.68138537        1.22149423        2.31089385
 C            0.69195952        1.10494486        3.55306993
 C            1.39880431        1.86968654        2.54116926
 C           -0.61723462       -0.83835000        3.38954968
 C           -0.63554808        0.60956398        3.23692683
 C           -1.36654986       -1.60313994        2.50969497
 C            0.70844006       -2.49969430        1.52753280
 C           -0.68008009       -2.56977871        1.66614141
 C            1.29510833       -2.64433484        0.26243199
 C            3.21198242       -1.28187998        1.02699748
 C            2.50745219       -2.01012169       -0.01365227
 C            3.21658640        1.22882463        1.03020594
 C            3.66985097       -0.02647708        0.45063366
 C            2.53880515        1.97375927       -0.01722054
 C            0.67654876        2.35883571        1.45589485
 C            1.34401666        2.63312338        0.25609225
 C           -1.30997582        1.16489963        2.15259793
 C           -0.71739468        2.22703183        1.46046548
 C           -2.35847584       -0.94620641        1.67708476
 C           -2.34255491        0.43788546        1.55127066
 C           -1.51811845       -2.79872489        0.50432745
 C           -2.54026128       -1.75855356        0.48416471
 C            0.51426084       -3.03412727       -0.82762269
 C           -0.92322473       -3.19043077       -0.68064389
 C            0.74781335       -2.38312852       -2.10571559
 C            2.63765224       -1.26063431       -1.25574149
 C            3.31963140       -0.02408572       -0.96065002
 C            2.63655887        1.21255937       -1.25352623
 C            1.55837124       -1.25189525       -2.13070710
 C            1.53537337        1.19708565       -2.10387698
 C            1.03512741       -0.02496237       -2.58685874
 C            0.60739858        3.07550018       -0.83830813
 C            0.70551519        2.31828177       -2.07725580
 C           -1.46518171        2.92108693        0.51709961
 C           -0.78200797        3.43891224       -0.64931036
 C           -3.04803632        1.00168812        0.49469059
 C           -2.72056468        2.34905576        0.07204502
 C           -2.88649567       -1.13787105       -0.71791162
 C           -3.28701503        0.20099334       -0.69858347
 C           -1.54448493       -2.80138930       -1.93432027
 C           -0.48761515       -2.41562204       -2.85632876
 C           -2.53092095       -1.73554437       -1.92829866
 C           -0.10947741       -0.01192057       -3.38987976
 C           -0.90891527       -1.21374032       -3.53886350
 C           -2.25442102       -0.90031732       -3.08433024
 C           -0.61282236        2.27449695       -2.68628889
 C           -1.52095802        3.02029196       -1.82965401
 C           -2.74470700        2.38535983       -1.38161046
 C           -3.05193318        1.05006456       -1.85943377
 C           -1.04144722        1.09642254       -3.28328462
 C           -2.34698635        0.53901497       -2.94178752
