56
Modified xyz file
 C            1.32150821        0.02125230        3.72383759
 C            2.56677760       -0.16986634        3.00621455
 C            2.53842571       -1.50070374        2.42938979
 C            0.48012343       -1.14061532        3.47475806
 C            1.19554671       -2.03363831        2.59557194
 C           -0.81677024       -0.67015962        3.05960451
 C            0.53563028        1.21053956        3.44929972
 C           -0.82104920        0.78343566        3.13459653
 C            1.10669081        2.24760917        2.72457561
 C            2.91711199        0.76202430        1.94762854
 C            2.27057063        1.98801127        1.88036367
 C            3.07382585       -1.41275304        1.08266998
 C            3.09361549       -0.00281635        0.72302612
 C            2.59916835       -2.31739193        0.15046696
 C            0.55920153       -2.56073422        1.47372750
 C            1.39573107       -3.06341028        0.48204914
 C           -1.46096590       -1.27789898        1.99102468
 C           -0.74502649       -2.14019695        1.13281941
 C           -2.59575503       -0.62644895        1.52728279
 C           -1.59875967        1.50205199        2.22060867
 C           -2.61563901        0.82782486        1.54717298
 C            0.22862443        3.14127277        1.99633041
 C           -1.12172458        2.70228795        1.69047724
 C            1.99539627        2.55993329        0.57582939
 C            0.88000142        3.47207320        0.74129004
 C            2.46727737        0.42364395       -0.45355991
 C            2.04129412        1.75243202       -0.56168106
 C            2.40787563       -1.86576515       -1.21066223
 C            2.12456015       -0.51706419       -1.43753387
 C            0.83088452       -3.52199470       -0.76345293
 C            1.58881814       -2.88670624       -1.83305085
 C           -1.32520097       -2.56608945       -0.08262242
 C           -0.56722793       -3.27000209       -1.01703203
 C           -3.22816132       -1.06607796        0.30917444
 C           -2.51862610       -2.00005635       -0.52954109
 C           -3.01591996        1.27249105        0.22152669
 C           -3.53027246        0.11352709       -0.48828327
 C           -1.38008621        3.02410476        0.29282697
 C           -0.13368740        3.50737497       -0.29288374
 C           -2.23026071        2.20424063       -0.45119727
 C            1.35337841        2.16679669       -1.69926827
 C            0.21891224        3.07492735       -1.56101387
 C            1.33497709       -0.14118470       -2.53479686
 C            1.02961995        1.20082078       -2.73063832
 C            0.65022013       -2.49136155       -2.85621460
 C           -0.67387716       -2.90629397       -2.42002446
 C            0.56015984       -1.09063827       -3.20740796
 C           -2.60888460       -1.51366587       -1.89897251
 C           -3.08494625       -0.14007190       -1.84537934
 C           -1.61088766       -1.86113522       -2.79986315
 C           -0.84442860       -0.81195180       -3.45738189
 C           -2.05348210        2.09494580       -1.83359338
 C           -0.83301021        2.60082609       -2.43409691
 C           -0.27737322        1.54966832       -3.26593645
 C           -2.39463818        0.85692071       -2.52397793
 C           -1.27926620        0.50565694       -3.39407736
