56
Modified xyz file
 C            1.25942085        0.01336003        3.96595780
 C            2.44497947       -0.14568314        3.15231948
 C            2.45080077       -1.50576225        2.63812096
 C            0.43241247       -1.17022657        3.78192781
 C            1.17483731       -2.11418166        2.96283040
 C           -0.87895146       -0.72861988        3.33260538
 C            0.42140483        1.17257112        3.74407925
 C           -0.93867309        0.69954587        3.53903746
 C            0.73047712        2.07931392        2.64915613
 C            2.66247828        0.75135359        2.02805800
 C            1.79902808        1.82130553        1.78998457
 C            2.86837928       -1.45110490        1.24792910
 C            3.11530772       -0.05763420        0.90767007
 C            2.24992145       -2.26701078        0.30656078
 C            0.49824683       -2.80904372        1.97000336
 C            1.14015326       -3.03275237        0.68190697
 C           -1.40800692       -1.26561197        2.16159020
 C           -0.89048906       -2.47465327        1.69673589
 C           -2.20280754       -0.47551442        1.31547591
 C           -1.52974017        1.51336744        2.50172189
 C           -0.54302044        2.49926498        2.08953905
 C           -2.30085014        0.91206637        1.51485441
 C           -0.60064745        2.97353271        0.78164816
 C            1.78475836        2.38976813        0.52161841
 C            0.58286211        3.06012922        0.04399534
 C            2.86828257        0.37438513       -0.39419307
 C            2.36599933        1.65870919       -0.59665616
 C            2.44918473       -1.96022483       -1.03538083
 C            2.73400366       -0.58016243       -1.40136100
 C            1.56440170       -2.51851390       -2.04134817
 C            0.07361806       -3.30280656       -0.27629423
 C           -1.18688311       -2.92459533        0.34800375
 C            0.28299735       -3.05206975       -1.62621258
 C           -2.74932696       -1.05130391        0.16641939
 C           -2.15186401       -2.25421288       -0.38805041
 C           -3.15603272       -0.21211455       -0.94712768
 C           -2.68391317        1.73408336        0.45802879
 C           -1.81706291        2.84985642        0.11248225
 C           -3.19125273        1.16364017       -0.77557100
 C           -1.87619065        3.03340213       -1.32548987
 C           -2.79402351        2.04132566       -1.86395513
 C            0.56231280        2.93248292       -1.40856314
 C            1.57332571        1.95182693       -1.78227587
 C           -0.64645231        2.97070435       -2.08939568
 C            1.96924673       -0.27011390       -2.60012327
 C            1.32414953       -1.49461771       -3.04334109
 C            1.26916174        0.92964628       -2.67975123
 C           -0.75064640       -2.39268526       -2.41162110
 C           -1.95885899       -2.04313987       -1.81469602
 C           -2.60732350       -0.79042622       -2.16945898
 C           -0.09800689       -1.46796424       -3.32925733
 C           -2.18391664        1.46930985       -3.04810332
 C           -0.86051529        2.05811005       -3.19696450
 C            0.08343563        0.97560174       -3.41414580
 C           -2.04006594        0.02682807       -3.14314504
 C           -0.69006574       -0.24274066       -3.60777844
