56
Modified xyz file
 C            1.53932826        0.05221521        4.05219361
 C            0.74905266       -1.16307915        4.00824725
 C            1.59397735       -2.19410759        3.44313258
 C            2.67396259       -0.13432799        3.16117934
 C            2.71677551       -1.53171654        2.79341664
 C            2.56890958        0.85537615        2.10637226
 C            0.72814566        1.12320611        3.50441045
 C            1.49468390        1.76202768        2.45445696
 C           -0.51703885       -0.85102811        3.35727060
 C           -0.56973028        0.58320349        3.14655780
 C           -1.01512504       -1.68590583        2.36104254
 C            1.00957771       -3.09978161        2.47874264
 C           -0.36280964       -2.88749531        2.05827858
 C            2.67207739       -1.88080713        1.38535594
 C            1.81843037       -3.04508551        1.26972986
 C            2.67660990        0.47290223        0.77034129
 C            2.55419905       -0.88240315        0.42092573
 C            2.34861884        1.43119797       -0.19144441
 C            0.79444785        2.32627600        1.40020066
 C            1.45390423        2.44765580        0.17970564
 C           -1.16454520        1.06844308        1.98660588
 C           -0.59498185        2.18782197        1.38079623
 C           -1.92520937       -1.16711338        1.43622999
 C           -1.97013368        0.22218347        1.21580086
 C           -2.41697204       -2.04000763        0.46958623
 C           -0.41613355       -3.38064538        0.69631258
 C            0.90204372       -3.12425556        0.14091053
 C           -1.51392526       -3.03944764       -0.06795278
 C            2.01493363       -1.22097285       -0.82350597
 C            1.01894443       -2.19954899       -0.89886051
 C            2.45880222        1.05476594       -1.52703681
 C            2.15549734       -0.31947505       -1.86688111
 C            1.91956422        1.90068188       -2.57261357
 C            0.86526344        3.26673480       -0.78100223
 C            1.13892013        3.05426709       -2.18932964
 C           -1.30035377        2.81267809        0.36292953
 C           -0.55221822        3.54751291       -0.64520238
 C           -2.61812346        0.75148713        0.08559282
 C           -2.34258654        2.06240506       -0.31457085
 C           -3.16750999       -1.52068964       -0.65265616
 C           -3.27822322       -0.08935203       -0.80882088
 C           -1.28502733       -2.63508052       -1.43859581
 C           -0.07535308       -2.01064746       -1.75458074
 C           -2.53432120       -2.03826017       -1.85924162
 C            1.15263224       -0.29552128       -2.91466737
 C            1.09621263        1.06429602       -3.43230448
 C           -0.02883549       -1.00930897       -2.73598001
 C           -0.13644495        2.98518044       -2.88593516
 C           -1.18089509        3.31835943       -1.93408195
 C           -2.27139040        2.38243937       -1.73624300
 C           -0.19631579        1.71025515       -3.58335275
 C           -3.16927275        0.17499367       -2.23304766
 C           -2.49600891       -0.96856532       -2.82681850
 C           -1.20710125       -0.50244324       -3.29418699
 C           -2.46416281        1.36781927       -2.66373011
 C           -1.34476586        0.93068762       -3.49368161
