56
Modified xyz file
 C            1.44234825        0.02552142        3.97692991
 C            0.65048644       -1.18501929        3.87073994
 C            1.30051179       -2.07354932        2.91849977
 C            2.56792319       -0.10671609        3.07306617
 C            2.40751743       -1.34307614        2.32583618
 C            2.66097951        1.12730664        2.31879014
 C            0.62780904        1.12656704        3.49001652
 C            1.36523189        1.78265053        2.43013426
 C           -0.72277217       -0.78663214        3.62016584
 C           -0.68901274        0.60414134        3.19107427
 C           -1.54134944       -1.67135437        2.93182490
 C            0.50143951       -2.86285618        2.10549987
 C           -0.93409294       -2.85133443        2.33269155
 C            0.71447160       -2.83557505        0.66609159
 C            2.55541741       -1.29194765        0.93933693
 C            1.60847253       -1.92227263        0.11622828
 C            3.23784688        1.05775780        1.06090762
 C            3.32423696       -0.24977346        0.42397535
 C            2.75968730        1.96529640        0.03718394
 C            0.69993516        2.14257216        1.26008382
 C            1.46843795        2.48060025        0.14477162
 C           -1.30139086        0.95111931        1.99048929
 C           -0.65699693        1.81860059        1.09330864
 C           -2.48797023       -1.14242128        1.96388849
 C           -2.38719075        0.19041371        1.55851847
 C           -1.58481714       -3.08893007        1.05789020
 C           -0.57111365       -3.03948331        0.01929811
 C           -2.70579907       -2.17583462        0.96028051
 C           -0.86005593       -2.34645325       -1.15262801
 C            1.40672270       -1.48662850       -1.20015835
 C            0.16640267       -1.67803523       -1.82394869
 C            3.35621828       -0.03012064       -1.00762729
 C            3.18360127        1.39745495       -1.22774544
 C            2.37640018       -0.70741788       -1.82512621
 C            2.31858315        1.56529451       -2.37829852
 C            1.97817448        0.22958452       -2.85882872
 C            0.83045013        2.94315294       -1.00116640
 C            1.32677551        2.53601946       -2.31087505
 C           -1.32154263        2.22555313       -0.06915204
 C           -0.61861652        2.91904989       -1.05157720
 C           -3.09332646        0.59547597        0.43346020
 C           -2.55962661        1.66744970       -0.38831480
 C           -3.10471712       -1.77877350       -0.30596883
 C           -2.19005056       -2.00633759       -1.41766726
 C           -3.60958772       -0.42870763       -0.45731522
 C           -2.88541277        1.36464453       -1.77841389
 C           -2.49531255       -1.01570483       -2.43811053
 C           -3.34687328       -0.01118314       -1.82107052
 C           -0.12135809       -1.01718465       -3.02044128
 C            0.77024132        0.02267956       -3.51091602
 C           -1.48532725       -0.59251037       -3.29002798
 C            0.18976084        2.43430944       -3.20472999
 C           -1.00408741        2.76695155       -2.44442384
 C           -2.03382256        1.80312937       -2.78269242
 C           -0.04602048        1.17035921       -3.87528412
 C           -1.43783949        0.81217733       -3.66847377
