56
Modified xyz file
 C            1.41794757       -0.02881512        4.17048907
 C            0.60993834       -1.19243403        3.84436069
 C            1.44771690       -2.09107882        3.09187081
 C            2.57206640       -0.04347966        3.28791035
 C            2.66359477       -1.36851353        2.72824366
 C            2.45139133        1.08043296        2.38137800
 C            0.63307593        1.14838089        3.84847959
 C            1.35713106        1.91595161        2.85287095
 C           -0.61642166       -0.71882581        3.23303830
 C           -0.70262107        0.70593093        3.51631854
 C           -1.00395002       -1.19032069        1.97130284
 C            0.92722317       -2.65985373        1.86537144
 C           -0.30741598       -2.24083029        1.35338372
 C            2.81039732       -1.50721898        1.29241286
 C            2.05807248       -2.69873124        0.96335936
 C            2.61243835        0.90288252        1.00493046
 C            2.67606759       -0.39140080        0.45798532
 C            2.24337356        1.96834637        0.18995362
 C            0.63193195        2.63733496        1.90807370
 C            1.26812888        2.92017584        0.70169960
 C           -1.43568538        1.49567727        2.65199249
 C           -0.76829488        2.59217414        1.95663675
 C           -1.93020164       -0.44694264        1.23718429
 C           -2.26548109        0.83915798        1.66624728
 C           -2.30504995       -0.85351685       -0.04421276
 C           -0.59030489       -2.56833538        0.02076406
 C           -1.64225682       -1.92903830       -0.65304938
 C            1.78828706       -2.93689404       -0.36474277
 C            0.41410414       -3.21117117       -0.71377411
 C            2.31615584       -0.61240167       -0.88122324
 C            2.19944967       -1.93015956       -1.32328162
 C            1.92766661        1.72815826       -1.20423427
 C            1.74628715        0.42198500       -1.63169009
 C            0.50379030        3.42252469       -0.42356778
 C            0.97921915        2.74091056       -1.61734374
 C           -1.56393563        2.87394270        0.76461042
 C           -2.60040543        1.85098666        0.68426345
 C           -0.94150542        3.31855082       -0.39569325
 C           -3.12305495       -0.00143124       -0.79542413
 C           -3.05946404        1.42747875       -0.55126080
 C           -3.22022124       -0.15491565       -2.22930360
 C           -1.89397905       -2.24486007       -1.99562928
 C           -2.58499907       -1.29594614       -2.84404880
 C            0.40134787       -3.15949568       -2.15870787
 C            1.44998938       -2.21637164       -2.53367793
 C           -0.81183571       -2.74573579       -2.81622430
 C            0.81905676        0.14264897       -2.65009296
 C           -1.59727765       -0.78705240       -3.78698329
 C            0.80190153       -1.12540085       -3.22833622
 C           -0.45161466       -1.66502391       -3.71797913
 C           -0.17705603        2.32846315       -2.38276397
 C           -1.36714745        2.79636299       -1.68367615
 C           -2.53011914        2.03802775       -1.76206523
 C           -2.63090370        1.03986297       -2.81459503
 C           -0.19381201        1.06514020       -2.96634275
 C           -1.41273651        0.61470675       -3.47520716
