56
Modified xyz file
 C            1.05224603        0.06582308        3.91605552
 C            2.24031511       -0.22633563        3.14540111
 C            2.17349864       -1.62885273        2.78102397
 C            0.20646651       -1.12164355        3.89139565
 C            0.79058809       -2.03465691        2.93214274
 C           -1.15693879       -0.68659588        3.69031861
 C            0.22432116        1.18177914        3.51352945
 C           -1.15265947        0.76624460        3.70563894
 C            0.53741362        1.91514470        2.36925349
 C            2.47569839        0.51660954        1.92321730
 C            1.55870489        1.47682277        1.50459306
 C            2.77261046       -1.76970221        1.47151078
 C            2.99326341       -0.42440063        0.94589753
 C            2.22482831       -2.71731137        0.62224006
 C            0.08216676       -2.40586456        1.78551401
 C            0.80233756       -3.01943141        0.76206957
 C           -1.84026066       -1.09016898        2.47940625
 C           -1.14973394       -1.79817644        1.49022790
 C           -2.14538488        1.21824876        2.74472016
 C           -2.68228284        0.02960174        2.09482083
 C           -0.45489619        2.76018916        1.87941361
 C           -1.84451083        2.33454579        1.97277122
 C           -0.27444797        3.40266072        0.59649516
 C            1.54455082        1.83632460        0.15218086
 C            0.78558350        2.92593418       -0.26342828
 C            2.77284398       -0.18240340       -0.41099614
 C            2.14044566        1.00283569       -0.80496557
 C            2.50290100       -2.58475226       -0.79056078
 C            2.81330834       -1.26286279       -1.29548481
 C            0.23369784       -3.09787508       -0.56964551
 C            1.33740686       -3.05555716       -1.51244730
 C           -1.62443099       -1.75506459        0.17044425
 C           -0.92522085       -2.38784758       -0.86190118
 C           -3.11705584        0.10406716        0.78064248
 C           -2.71479142       -0.94198599       -0.14084010
 C           -2.42633123        2.46516254        0.64784071
 C           -1.52375795        3.27984371       -0.14206436
 C           -3.04140804        1.36808008        0.05822969
 C            0.26051216        2.94749440       -1.61326482
 C           -1.18777772        2.86488451       -1.49251079
 C            1.91394721        1.23599485       -2.16487429
 C            0.89065219        2.18391848       -2.58074102
 C            2.18154097       -1.15387762       -2.59856150
 C            1.19884601       -2.23251451       -2.69876830
 C            1.87233559        0.10996000       -3.08373469
 C           -1.18898704       -2.05039355       -2.19454947
 C           -0.08579212       -1.94574503       -3.14093496
 C           -2.83583272       -0.39250621       -1.47596971
 C           -2.79036680        1.05816880       -1.34500625
 C           -1.86069600        1.79617268       -2.08588880
 C           -2.14583843       -1.00079758       -2.50965558
 C            0.06415514        1.52616007       -3.57607619
 C            0.70996718        0.27710566       -3.93994506
 C           -0.30267608       -0.76060501       -3.94932763
 C           -1.32247497        1.24036872       -3.24548876
 C           -1.56259961       -0.16221747       -3.53936305
