56
Modified xyz file
 C            1.26692978        0.01150599        4.03872001
 C            2.49991304       -0.35510956        3.37482955
 C            2.26230392       -1.60326177        2.65974046
 C            0.36596276       -1.12285335        3.93433204
 C            0.87816442       -1.98354001        2.88233021
 C           -0.97620035       -0.59491118        3.80232971
 C            0.53550631        1.18088254        3.57713744
 C           -0.87531656        0.85143774        3.68007445
 C            0.98772194        1.89936670        2.46708285
 C            3.07632751        0.58147665        2.43417843
 C            2.28739637        1.72263573        1.99508088
 C            2.72623504       -1.42673594        1.29334560
 C            3.43776288       -0.17131416        1.24680205
 C            1.86413157       -1.73457276        0.24463465
 C            0.07527251       -2.26655985        1.77796725
 C            0.68475225       -2.42066878        0.52652034
 C           -1.79265210       -1.06302978        2.70244967
 C           -1.30972381       -2.05438484        1.85580179
 C           -1.77423532        1.27366861        2.61948591
 C           -2.43945714        0.08986872        2.10009900
 C            0.07026010        2.59040358        1.67794257
 C           -1.34404243        2.24135007        1.72978329
 C            0.39950945        2.91798321        0.29608783
 C            2.56424251        1.90317620        0.57864245
 C            3.20515800        0.68389425        0.10761564
 C            1.61724088        2.51137637       -0.24897833
 C            2.00516153       -1.08377103       -0.99196312
 C            2.72095805        0.12593211       -1.06448231
 C            1.20631681       -1.49529342       -2.07381088
 C           -0.05051711       -2.94024503       -0.52667878
 C            0.21955744       -2.46220979       -1.87204701
 C           -2.09071469       -2.34045507        0.74361638
 C           -1.48519642       -3.03868738       -0.36988307
 C           -2.78543395        0.01227797        0.74904871
 C           -2.90574347       -1.26487734        0.19664488
 C           -1.84126893        2.21108256        0.36908597
 C           -0.82396892        2.79801119       -0.48753255
 C           -2.56653031        1.11356876       -0.09191533
 C           -0.75759133        2.40363829       -1.81907846
 C            1.68749763        2.24707237       -1.61787421
 C            2.38040892        1.04204232       -2.04412434
 C            0.49170486        2.35573592       -2.43839941
 C            1.18279227       -0.74967968       -3.25365331
 C            1.76401465        0.57239023       -3.25980362
 C            0.71105515        1.51295551       -3.60460523
 C           -0.05173021       -0.66288560       -4.01557430
 C           -0.39078961        0.74745994       -4.14761385
 C           -1.05691264       -2.35432826       -2.57082628
 C           -2.10720890       -2.55734671       -1.58964513
 C           -2.97198162       -1.44090413       -1.24270510
 C           -1.22488975       -1.36127017       -3.52652598
 C           -2.73866104        0.98536173       -1.46948756
 C           -1.84799574        1.71695587       -2.35991006
 C           -1.70755793        0.94011159       -3.58070585
 C           -2.98053425       -0.32157583       -2.05962800
 C           -2.27740402       -0.37315129       -3.33395796
