56
Modified xyz file
 C            1.41834481       -0.15120855        4.59983557
 C            0.59010901       -1.33728120        4.46895376
 C            1.18920392       -2.18275918        3.45590032
 C            2.50051265       -0.25169511        3.63321004
 C            2.28316203       -1.44636892        2.84208018
 C            2.58292411        1.01613191        2.95029946
 C            0.61353760        0.99679827        4.21994769
 C            1.42006277        1.80714446        3.33689892
 C           -0.70450201       -0.92560639        3.95670813
 C           -0.66133009        0.50832501        3.72873658
 C            0.11856562       -2.65053110        2.59366118
 C           -1.03106418       -1.78756767        2.82750459
 C            0.44655556       -2.94806909        1.28303956
 C            2.33469935       -1.39126646        1.44627658
 C            1.69340770       -2.41491872        0.75508895
 C            2.63558113        1.01984439        1.50207760
 C            2.60055005       -0.17826995        0.78107186
 C            0.81624925        2.30275248        2.11435540
 C            1.78084026        2.10352454        1.06102760
 C           -1.16360347        0.98123601        2.51902605
 C           -0.51073261        2.01235383        1.82401428
 C           -1.68253054       -1.21688605        1.73140654
 C           -2.00983947        0.13744072        1.80372272
 C           -0.55177579       -2.73803614        0.25159603
 C           -1.56789009       -1.81862458        0.46894576
 C            1.54084987       -2.31933861       -0.67715745
 C            0.16971777       -2.68574764       -0.99870477
 C            2.36291597       -0.07786318       -0.60054825
 C            2.09356120       -1.23790632       -1.34289659
 C            1.31457362        2.04381993       -0.23913620
 C            1.95943994        1.17127599       -1.09983513
 C           -0.96158538        2.30908537        0.53519305
 C           -0.01967168        2.36616986       -0.50979759
 C           -2.74458897        0.69344212        0.77278751
 C           -2.27198514        1.95499801        0.24465634
 C           -2.16795038       -1.20305471       -0.63488709
 C           -3.02404812       -0.13279190       -0.37908287
 C           -0.41334007       -2.06893099       -2.09585457
 C           -1.62712760       -1.38175473       -1.92554324
 C            1.75282396       -1.11501343       -2.68680660
 C            0.46751009       -1.66061096       -3.09578969
 C            1.72214636        1.33443194       -2.45358946
 C            1.86747880        0.18249540       -3.30894677
 C           -0.43823903        2.34252481       -1.85235287
 C            0.50059749        2.02203608       -2.84224111
 C           -2.75535093        2.05779698       -1.11394614
 C           -3.38687394        0.78488533       -1.43790264
 C           -1.80176792        2.33293568       -2.16319908
 C           -2.19757992       -0.71591460       -3.01936204
 C           -3.02168451        0.45354960       -2.79397551
 C           -2.28050269        1.58866163       -3.31758185
 C           -0.01601874       -0.88113129       -4.21569924
 C            0.86461376        0.26680885       -4.35749332
 C            0.06574060        1.45291894       -4.10969490
 C           -1.37526326       -0.38936268       -4.17242062
 C           -1.31942871        1.06512199       -4.26357664
