56
Modified xyz file
 C            1.65087688        0.10974996        3.84004710
 C            0.80538202       -1.06583160        3.73309773
 C            1.33418158       -1.90510076        2.67386335
 C            2.58811376        0.08495939        2.73074841
 C            2.41876063       -1.17164589        2.03306088
 C            2.42407556        1.31205490        1.97786807
 C            0.80576227        1.27527776        3.66553058
 C            1.42820816        2.12205979        2.66568074
 C           -0.57170276       -0.62337424        3.63348852
 C           -0.55125238        0.81597335        3.42025113
 C           -1.44641878       -1.39380810        2.88759657
 C            0.44131543       -2.61850963        1.87349079
 C           -0.92533434       -2.54287245        2.15936658
 C            0.86721897       -3.00840540        0.60195705
 C            2.49757197       -1.18696484        0.64659713
 C            1.98014384       -2.30005258       -0.00755364
 C            2.39505065        1.24544258        0.58553115
 C            2.63561600        0.01800267       -0.05465022
 C            1.83774710        2.31445435       -0.12770670
 C            0.59686202        2.92150787        1.89813444
 C            0.97026743        3.18800726        0.52349697
 C           -1.25491304        1.37805379        2.35243776
 C           -0.82715863        2.61698804        1.88057142
 C           -2.36680358       -0.72365573        1.99041129
 C           -2.06035292        0.56012360        1.54490418
 C           -1.90386809       -2.85540519        1.13223418
 C           -2.81362262       -1.72032129        1.04052616
 C           -0.09358329       -3.31329905       -0.45038607
 C           -1.45305665       -3.17068093       -0.20977854
 C            1.76920025       -2.26919310       -1.44431685
 C            0.46795394       -2.86186693       -1.71613917
 C            2.74007487       -0.02248687       -1.44300617
 C            2.19238442       -1.16026970       -2.16396938
 C            1.83764004        2.29447657       -1.51961522
 C            2.43685701        1.17006459       -2.20732790
 C            0.62543209        2.66597037       -2.23870542
 C           -0.24111670        3.60781172       -0.15657308
 C           -1.36339203        3.13141195        0.63862864
 C           -0.45374274        3.17883636       -1.52737828
 C           -2.37309529        0.93713422        0.22553052
 C           -2.14198926        2.24494015       -0.19618821
 C           -1.73297763        2.48580319       -1.56897539
 C           -2.91594332       -1.35216742       -0.35309317
 C           -2.26730370       -2.39644321       -1.13134422
 C           -2.74304868       -0.02322366       -0.72750595
 C           -0.36132301       -2.30287013       -2.68383644
 C           -1.77075514       -2.07913705       -2.39026238
 C            1.37635737       -0.64935872       -3.25480471
 C            1.55908117        0.79277040       -3.30425129
 C            0.39609802        1.66609799       -3.26865070
 C            0.11515621       -1.18797466       -3.48988873
 C           -1.94048497        1.48523557       -2.50633515
 C           -2.59371032        0.25801671       -2.08558027
 C           -2.14393057       -0.80137536       -2.97189868
 C           -0.87360080        1.12161544       -3.42956640
 C           -1.00890841       -0.29654604       -3.72576297
