56
Modified xyz file
C          1.55515       -0.07830        4.32012
C          0.75953       -1.26649        4.13056
C          1.48165       -2.21233        3.44747
C          2.51807       -0.21423        3.28516
C          2.57958       -1.50600        2.86222
C          2.44370        0.80700        2.36553
C          0.78017        1.08336        4.00050
C          1.47596        1.81894        2.88103
C         -0.49345       -0.91536        3.64637
C         -0.57805        0.55772        3.74180
C         -1.15705       -1.65487        2.59867
C          0.93215       -2.94178        2.43608
C         -0.36115       -2.68699        1.99621
C          2.68781       -1.83001        1.53257
C          1.82038       -3.00746        1.30151
C          2.66396        0.57293        0.98615
C          2.79092       -0.81166        0.55603
C          2.40051        1.72211        0.02860
C          0.66682        2.69834        1.91874
C          1.15571        2.58820        0.42758
C         -1.37330        1.23322        2.76775
C         -0.83833        2.36703        1.99594
C         -2.30965       -1.01564        1.78801
C         -2.36746        0.52069        1.97712
C         -2.10698       -1.24465        0.24575
C         -0.43699       -3.04099        0.56743
C          0.97172       -3.06075        0.11566
C         -1.53766       -2.55576       -0.34439
C          2.60608       -1.26711       -0.87959
C          1.27486       -2.09187       -0.97242
C          2.39350        1.29012       -1.42236
C          2.51795       -0.12300       -1.81992
C          1.57684        1.93528       -2.46773
C          0.20443        3.07092       -0.66228
C          0.42604        2.76498       -2.07926
C         -1.71395        2.49992        0.84280
C         -2.67842        1.41230        0.86242
C         -1.23480        2.98906       -0.44375
C         -3.11076       -0.53661       -0.62181
C         -3.21764        0.90187       -0.38616
C         -3.03574       -0.70388       -2.05925
C         -1.09559       -2.42662       -1.88127
C          0.46053       -2.32077       -2.24790
C         -2.04427       -1.56333       -2.71504
C          1.86951       -0.29106       -3.09599
C          1.41314        0.98262       -3.55997
C          0.85065       -1.32599       -3.34709
C         -1.56184       -0.76120       -3.84374
C          0.15437        0.78061       -4.22775
C         -0.16433       -0.63525       -4.13523
C         -0.88573        2.54303       -2.74362
C         -1.90985        2.61817       -1.69255
C         -3.00328        1.60855       -1.65215
C         -3.06484        0.59716       -2.69354
C         -1.02549        1.54855       -3.84811
C         -2.12507        0.57730       -3.78293
