56
Modified xyz file
 C            1.27006497       -0.09635262        3.45917117
 C            2.35397443       -0.30089986        2.51550010
 C            2.29729377       -1.69248898        2.08697509
 C            0.40263659       -1.26129006        3.40168624
 C            1.02822768       -2.24394710        2.53812484
 C           -0.93942146       -0.80371255        3.09024853
 C            0.44409676        1.08671967        3.32576037
 C           -0.92776217        0.65195585        3.08624290
 C            0.94623955        2.16513453        2.61629152
 C            2.66450373        0.70339227        1.59501246
 C            2.07181683        1.96135345        1.71095868
 C            3.28929164        0.36765913        0.39682820
 C            2.80175760       -2.04406704        0.84135757
 C            3.48198291       -1.03173844        0.05667645
 C            1.99399535       -2.84435874       -0.06828378
 C            0.23239926       -2.95802641        1.65214872
 C            0.74359517       -3.30342369        0.33418504
 C           -1.69547109       -1.47497513        2.13436458
 C           -1.17734935       -2.61558961        1.51088202
 C           -2.77353903       -0.80479607        1.56540339
 C           -1.74093898        1.34058031        2.18084400
 C           -2.75874655        0.64970356        1.52667989
 C            0.00915835        3.05636179        1.96487061
 C           -1.32484035        2.56816950        1.66613824
 C            1.82579474        2.74490138        0.50854292
 C            0.60982024        3.50837886        0.72213372
 C            2.92135629        1.07496243       -0.82076467
 C            2.07259247        2.17696269       -0.74108160
 C            3.10698396       -1.21124204       -1.33614117
 C            2.17674687       -2.31985486       -1.41408127
 C            2.70531922        0.08128967       -1.86154114
 C            1.08862608       -2.21891048       -2.27146185
 C           -0.37334705       -3.28318512       -0.59851454
 C           -1.57687853       -2.95948536        0.15190143
 C           -0.19784009       -2.77477551       -1.88105823
 C           -3.34184326       -1.27967642        0.31658605
 C           -2.60847720       -2.25912204       -0.46013337
 C           -3.15459778        1.06077898        0.18783712
 C           -3.59101582       -0.12470558       -0.53001944
 C           -1.61384804        2.89576893        0.27709518
 C           -0.41321884        3.48797662       -0.30243139
 C           -2.40682507        2.02942403       -0.47645439
 C            1.22072526        2.45525077       -1.81442969
 C           -0.04498356        3.14619480       -1.59319262
 C            1.57344454        0.18083689       -2.66405937
 C            0.83941404       -0.96846909       -2.97785572
 C            0.99914014        1.43710664       -2.83099084
 C           -1.23995462       -1.96088866       -2.48891003
 C           -2.42426821       -1.71912764       -1.79958553
 C           -3.03187358       -0.39641808       -1.84027559
 C           -0.59464994       -0.88392235       -3.22468150
 C           -2.20159029        1.91710341       -1.85398527
 C           -1.03935543        2.54319875       -2.45765701
 C           -0.37554697        1.54861212       -3.28407403
 C           -2.39695840        0.63561520       -2.51957570
 C           -1.20585678        0.36005728       -3.30920729
