56
Modified xyz file
 C            1.33421989        0.10975754        3.78479397
 C            2.52617640       -0.05143122        2.97857318
 C            2.48154842       -1.37739706        2.38127119
 C            0.48387057       -1.04785992        3.55222689
 C            1.15119201       -1.90862521        2.58888984
 C           -0.85183230       -0.56654758        3.24171006
 C            0.52645668        1.29656978        3.59308458
 C           -0.85371981        0.87233672        3.41669365
 C            0.83811599        2.19726708        2.49636639
 C            2.78980009        0.89185570        1.90416124
 C            1.85121832        1.87692666        1.58775356
 C            2.96993904       -1.25762512        1.02160940
 C            3.39619342        0.12330917        0.83538875
 C            2.28404732       -1.89933337       -0.00806059
 C            0.42896522       -2.35656000        1.48784816
 C            1.08290260       -2.56661138        0.26688671
 C           -1.50808667       -1.09744659        2.13908501
 C           -0.95768767       -2.20839436        1.50336825
 C           -2.40839441       -0.29722494        1.43615722
 C           -1.43568029        1.69581543        2.36868497
 C           -0.43502930        2.68187699        1.99676184
 C           -2.18838599        1.08450501        1.36611690
 C           -0.48195210        3.22305340        0.72540993
 C            1.78563842        2.37593509        0.28142190
 C            0.72363221        3.20333872       -0.08551262
 C            3.40118992        0.65247573       -0.44527292
 C            2.61454315        1.84664951       -0.71346271
 C            2.58278012       -1.53807929       -1.32130733
 C            3.21715546       -0.25405293       -1.56468173
 C            1.59353262       -1.73277530       -2.36745047
 C            0.36686376       -3.12878506       -0.78983288
 C            0.51974378       -2.56830658       -2.12191467
 C           -1.71868167       -2.87972630        0.55547783
 C           -1.04657155       -3.42005049       -0.60957165
 C           -3.25259459       -0.90869578        0.51529516
 C           -2.96132664       -2.27365244        0.10748922
 C           -3.63938906       -0.17490546       -0.67092313
 C           -2.38465361        1.76443928        0.15666443
 C           -1.58971734        2.86944669       -0.14565491
 C           -3.06043624        1.13630462       -0.88794893
 C            0.30572204        3.24752915       -1.47607726
 C           -1.13349723        3.04760468       -1.51331597
 C            2.13816154        1.76458927       -2.08998263
 C            2.44155007        0.43571877       -2.58219456
 C            1.34266384       -0.43306977       -2.96682369
 C            0.91079827        2.32312135       -2.41392376
 C           -2.46140031        1.12997372       -2.21628277
 C           -1.41961977        2.00420612       -2.48191237
 C            0.04396260        0.07699383       -2.98409338
 C           -0.14676008        1.46187783       -2.93191392
 C           -0.79942469       -2.14538477       -2.55350022
 C           -1.74863303       -2.93512597       -1.78766872
 C           -2.98478808       -2.32265955       -1.34657632
 C           -3.30647446       -0.99470325       -1.82593648
 C           -1.03903553       -0.78804087       -2.78749978
 C           -2.31881134       -0.26040727       -2.59989388
