56
Modified xyz file
 C            1.12470667        0.07570160        4.03879324
 C            2.42770823       -0.31380990        3.54101587
 C            2.29342619       -1.65060294        2.97496512
 C            0.27354981       -1.09845012        3.96404026
 C            0.87996910       -1.98821201        2.99608027
 C           -1.06630350       -0.62697629        3.71685524
 C            0.40631578        1.14397614        3.36274435
 C           -0.99188735        0.81362182        3.50072652
 C            0.87749898        1.62197383        2.13839433
 C            3.04742010        0.52125473        2.53521934
 C            2.23819558        1.52222787        1.85541749
 C            2.99923815       -1.67090352        1.70589637
 C            3.58848316       -0.35992909        1.51534608
 C            2.39788378       -2.28930763        0.61822620
 C            0.22941383       -2.25915108        1.78804117
 C            0.99548757       -2.68101561        0.70534858
 C           -1.78757814       -1.16179870        2.58327951
 C           -1.09903395       -1.85286509        1.58085643
 C           -1.88670183        1.11321096        2.40454735
 C           -2.66900328       -0.08679203        2.18671616
 C           -0.01772385        1.92663804        1.09945903
 C           -1.40575196        1.78439551        1.28374376
 C            0.48490826        2.29636983       -0.15887379
 C            2.67409964        1.53767044        0.47582048
 C            3.40881842        0.30312386        0.23796992
 C            1.80033220        1.97474964       -0.50982630
 C            2.61337924       -1.75564094       -0.71961994
 C            3.08034539       -0.44544782       -0.88803735
 C            0.43899108       -2.62642644       -0.63368666
 C            1.51388853       -2.25074861       -1.53788509
 C           -1.65161683       -1.86509126        0.28997821
 C           -0.83294299       -2.09858280       -0.82487306
 C           -3.31274681       -0.20638082        0.97370526
 C           -2.91976819       -1.30795410        0.11477976
 C           -2.25351096        1.84906968        0.17577457
 C           -3.32711715        0.95299139        0.10523753
 C           -0.39634928        2.71674343       -1.15421256
 C           -1.82053465        2.51709416       -0.96542385
 C           -0.08857251        2.43920404       -2.55133079
 C            2.07492965        1.57158022       -1.81399983
 C            2.68980590        0.26876703       -2.01656912
 C            1.09097234        1.77708226       -2.86009372
 C            1.20068245       -1.59884899       -2.71900068
 C            1.94784740       -0.40607871       -3.06302746
 C            1.02390206        0.55390007       -3.64395367
 C           -1.18804617       -1.61994651       -2.09534831
 C           -0.19468483       -1.34571314       -3.03618171
 C           -0.25878831       -0.10695796       -3.80068011
 C           -3.37538033       -0.95957398       -1.21722181
 C           -3.77112341        0.44265223       -1.17790560
 C           -2.46409765       -1.11722135       -2.32625377
 C           -2.40590500        2.21143302       -2.26343303
 C           -1.31828777        2.01785502       -3.20479682
 C           -1.41367308        0.66197139       -3.73050543
 C           -3.29594883        1.07589654       -2.38796432
 C           -2.60912091        0.05927267       -3.16827361
