56
Modified xyz file
 C            1.53719616       -0.03251130        3.96360944
 C            0.71901461       -1.22055955        3.79722815
 C            1.26739852       -1.98772947        2.68965362
 C            2.56764998       -0.06547728        2.94263033
 C            2.53900495       -1.37983780        2.32917678
 C            2.40097106        1.09481500        2.08005734
 C            0.69347442        1.11616633        3.69931606
 C            1.22487434        1.81099118        2.53686513
 C           -0.66942267       -0.79892569        3.72581066
 C           -0.68438173        0.65843667        3.66417215
 C           -1.52928030       -1.52652911        2.91218258
 C            0.39859117       -2.43400646        1.69038706
 C           -0.96049672       -2.49460885        1.98634966
 C            0.83688404       -2.48388204        0.35737079
 C            2.96444101       -1.47648796        1.01776540
 C            2.19155959       -2.28842945        0.09957054
 C            2.61221564        0.92997318        0.71118595
 C            3.24460560       -0.24408923        0.30177632
 C            1.82209166        1.64743782       -0.20411197
 C            0.33932096        2.30300953        1.59073024
 C            0.76595080        2.44480112        0.27238466
 C           -1.56143346        1.30110388        2.79893944
 C           -1.03035624        2.27931437        1.86292163
 C           -2.60453917       -0.84659349        2.20932601
 C           -2.57811100        0.53649724        2.09079336
 C           -1.91615461       -2.68677411        0.92034440
 C           -2.93167110       -1.64883492        1.04550797
 C           -0.08650519       -2.48776186       -0.70614080
 C           -1.44428016       -2.66851569       -0.44746791
 C            0.29666826       -2.08263888       -1.99478887
 C            2.61660623       -1.89367917       -1.22641678
 C            3.26529234       -0.59305704       -1.09902588
 C            1.62492557       -1.77557687       -2.27200447
 C            2.00350273        1.45211851       -1.58731797
 C            2.63065032        0.29601607       -2.04331043
 C            1.93068866       -0.54993947       -2.99196134
 C            1.22901443        2.15694172       -2.50613899
 C           -0.10158039        3.06780610       -0.61823339
 C            0.17353452        3.02365752       -2.03602168
 C           -1.97742072        2.37632491        0.76575209
 C           -2.76912383        1.15694413        0.78357907
 C           -1.52916642        2.86107548       -0.45021164
 C           -3.05024022       -1.00661798       -0.25200138
 C           -2.41019597       -1.89434018       -1.20396967
 C           -2.84941293        0.36927367       -0.36818607
 C           -0.67892712       -1.66072608       -2.89940192
 C           -2.02066518       -1.37538222       -2.42357383
 C            0.95083882        0.02321358       -3.79033682
 C            0.72179180        1.45537854       -3.67750609
 C           -0.34731811       -0.62623687       -3.86906659
 C           -1.05805013        2.62515498       -2.70299089
 C           -1.99029798        2.21817016       -1.66403219
 C           -2.44881332        0.89903209       -1.60071845
 C           -2.25670265        0.03329587       -2.68183420
 C           -0.71161518        1.69023109       -3.75210530
 C           -1.37259572        0.40256826       -3.77651130
