56
Modified xyz file
 C            0.96396969       -0.16314914        4.16617924
 C            2.28748310       -0.38271934        3.61640976
 C            2.26644205       -1.68812324        2.97586185
 C            0.15351545       -1.31798239        3.80409530
 C            0.87440580       -2.03184537        2.77065379
 C           -1.17438981       -0.84045453        3.51019475
 C            0.21955428        1.02092568        3.77720365
 C           -1.16195181        0.61115564        3.63546024
 C            0.75993569        1.91031763        2.85270313
 C            2.82254948        0.55975008        2.64844237
 C            2.05708743        1.64707813        2.24109026
 C            3.12694134       -1.61270400        1.82188354
 C            3.52374498       -0.21961329        1.64827752
 C            2.60457280       -2.04648087        0.54376423
 C            0.36376306       -2.07700423        1.46605669
 C            1.23629854       -2.30064136        0.39017671
 C           -1.74995902       -1.14626155        2.21678517
 C           -0.97557663       -1.73691243        1.21833752
 C           -1.94750185        1.13959422        2.53536136
 C           -2.55588750        0.00037312        1.86495051
 C           -0.09287573        2.51106923        1.83476242
 C           -1.44844198        2.18145949        1.75251697
 C            1.96236117        1.97934189        0.82348677
 C            0.68632177        2.62370742        0.60678144
 C            3.33934939        0.09409803        0.23898193
 C            3.24744896       -1.18911304       -0.42690977
 C            2.45086488        1.10419747       -0.13830259
 C            2.74135972       -1.21102082       -1.70601969
 C            0.73522227       -2.33989072       -0.91558501
 C            1.64401971       -2.11629560       -1.95574609
 C           -1.42501612       -1.62749363       -0.09841027
 C           -0.63023857       -2.12063290       -1.13696575
 C           -2.92925637        0.15795429        0.54186878
 C           -2.54592512       -0.82486798       -0.37519399
 C           -2.10943306        2.44391957        0.55522070
 C           -3.07300506        1.46519918        0.09166273
 C            0.03357033        2.48030240       -0.61064947
 C           -1.31983116        2.79014541       -0.61475497
 C            1.82594362        1.02493593       -1.38975962
 C            2.28667317        0.04390059       -2.26775669
 C            0.55652611        1.60965043       -1.58575282
 C            1.16329255       -1.73915513       -3.26618955
 C            1.49418245       -0.32445004       -3.41975066
 C           -1.13553950       -2.15690895       -2.43866240
 C           -0.24314154       -1.89032065       -3.54855823
 C           -3.04261100       -0.74339234       -1.67420278
 C           -2.36788646       -1.45473212       -2.74035643
 C           -3.27004115        1.70894628       -1.32234045
 C           -2.12197624        2.48471843       -1.77687476
 C           -3.39593857        0.56344682       -2.20026005
 C           -0.18421763        1.33772440       -2.75852092
 C            0.25742309        0.37287353       -3.66454577
 C           -0.67791376       -0.63752969       -4.13279088
 C           -2.07656507       -0.48837453       -3.79663479
 C           -1.51314603        1.75396436       -2.86275159
 C           -2.51655616        0.80732024       -3.32492334
