56
Modified xyz file
 C            1.28356259        0.17372585        3.95513324
 C            2.46318425       -0.01530731        3.13867112
 C            2.44349231       -1.38764235        2.67007351
 C            0.43083197       -0.99645905        3.77746471
 C            1.09420689       -1.89107959        2.86105874
 C           -0.89366835       -0.53134512        3.44647121
 C            0.46992502        1.34812061        3.72568498
 C           -0.90959732        0.90591105        3.65753256
 C            0.71690763        2.16514314        2.54945257
 C            2.66575090        0.83207188        1.97551008
 C            1.79250470        1.88862204        1.70014489
 C            2.99319956       -1.40639773        1.32609842
 C            3.11457179       -0.02446024        0.88433327
 C            2.48248343       -2.33791205        0.43997429
 C            0.41311979       -2.38055034        1.74950254
 C            1.20005531       -2.95156923        0.75330547
 C           -1.55036503       -1.03748864        2.32773393
 C           -0.87033988       -1.88749334        1.42862276
 C           -2.65573835       -0.31414380        1.88881584
 C           -1.59277142        1.73046898        2.67663519
 C           -0.57882711        2.50189805        1.97203354
 C           -2.60186796        1.13986184        1.93728473
 C           -0.67420513        2.68612227        0.59193067
 C            1.75587804        2.39288912        0.40448701
 C            0.50399542        2.91981386       -0.11398874
 C            2.78110903        0.32257914       -0.42565860
 C            2.38177699        1.63534979       -0.66700189
 C            2.45190176       -2.01232692       -0.97044456
 C            2.51287762       -0.67787039       -1.37214937
 C            0.59573830       -3.35394227       -0.49304183
 C            1.45417447       -2.88082566       -1.56725247
 C           -1.47806820       -2.24911713        0.20488210
 C           -0.74661098       -2.91089853       -0.77520978
 C           -3.30886180       -0.68311814        0.65685653
 C           -2.64130371       -1.61486978       -0.21722128
 C           -2.84095014        1.60808128        0.58828623
 C           -1.83631526        2.29708414       -0.09131901
 C           -3.54545118        0.53901992       -0.09486547
 C           -1.86977758        2.31959370       -1.48924113
 C            0.53319539        2.78101435       -1.55824321
 C            1.70411823        1.98008173       -1.90308368
 C           -0.66097282        2.60785371       -2.24203377
 C            2.01266505       -0.33608569       -2.63261975
 C            1.63481268        1.03749508       -2.91814906
 C            0.60800865       -2.34171776       -2.61242784
 C           -0.77030183       -2.39742497       -2.13794409
 C            1.04090331       -1.20919112       -3.28286930
 C           -2.69895706       -1.07815836       -1.56994111
 C           -3.22457963        0.27987168       -1.48370932
 C           -2.60601793        1.28538774       -2.20883306
 C           -1.66528649       -1.37405724       -2.46329690
 C           -0.68552123        1.80703294       -3.45339328
 C            0.47819340        1.01102649       -3.79610959
 C            0.04677935       -0.37149371       -3.92025801
 C           -1.82553845        0.90921668       -3.36884563
 C           -1.32802902       -0.45239062       -3.45882837
