56
Modified xyz file
 C            1.52708241       -0.01148177        4.09367433
 C            0.64544544       -1.14727096        4.28792896
 C            1.11687865       -2.21797577        3.43271540
 C            2.47612115       -0.35036435        3.04368316
 C            2.22541355       -1.71427761        2.63455913
 C            2.41261414        0.68803840        2.03688225
 C            0.72098753        1.09067794        3.60501577
 C            1.39840878        1.64120945        2.45247073
 C           -0.67753009       -0.77378782        3.81549133
 C           -0.63787125        0.62332653        3.41775588
 C           -0.03575000       -2.75445472        2.73000341
 C           -1.09244473       -1.75625252        2.82737742
 C            0.19509118       -3.34826993        1.50063305
 C            2.23738279       -2.02652198        1.27854774
 C            1.49549720       -3.14247221        0.89104558
 C            2.45933807        0.33357607        0.68809432
 C            2.51894727       -1.02261008        0.33289389
 C            2.01757075        1.27808250       -0.25262124
 C            0.62863210        2.20382265        1.45048770
 C            1.22535077        2.34159656        0.21085475
 C           -1.29219169        0.99400274        2.24640181
 C           -0.75995329        2.03671657        1.48151428
 C           -1.71320040       -1.29575208        1.66638290
 C           -2.08816438        0.04802977        1.60446408
 C           -0.76694991       -3.14239048        0.43563012
 C           -1.58954279       -2.02161674        0.47536859
 C            1.35076688       -3.46231320       -0.51202956
 C           -0.07816197       -3.45641758       -0.80213086
 C            2.57816281       -1.35532372       -1.01882778
 C            2.00052965       -2.60721414       -1.47758631
 C            2.07977121        0.97731215       -1.62429148
 C            2.24692357       -0.34995368       -2.01156136
 C            1.44568332        1.81645337       -2.54216801
 C            0.58892033        3.18480125       -0.68145798
 C            0.89908101        3.07084108       -2.08274359
 C           -1.50371444        2.51252590        0.39396838
 C           -0.85087428        3.31751211       -0.54789008
 C           -2.85493903        0.46981719        0.52859985
 C           -2.67086900        1.82554413        0.04225866
 C           -2.01096478       -1.43833895       -0.72221372
 C           -2.91899012       -0.38942083       -0.63937090
 C           -0.28856222       -2.59809026       -1.95220282
 C            1.01498781       -2.28663843       -2.49385431
 C            1.25419407       -0.92379834       -2.91021196
 C           -1.21912677       -1.56705955       -1.87324949
 C            0.46292416        1.21929472       -3.43243104
 C            0.16866395       -0.12572574       -3.24707703
 C           -1.10042420       -0.48734200       -2.75925957
 C           -0.31565908        3.34348777       -2.83412425
 C           -1.40178203        3.50077966       -1.88151154
 C           -0.60841323        2.17061479       -3.63930126
 C           -3.15927433        1.83521383       -1.32815920
 C           -3.13304492        0.45895574       -1.79763032
 C           -2.17783900        0.39033836       -2.88371874
 C           -2.48567134        2.64819415       -2.31791186
 C           -1.95946128        1.75237004       -3.33916718
