56
Modified xyz file
 C            1.42456370        0.10727671        4.15898342
 C            0.63812719       -1.10799729        4.08937371
 C            1.43241789       -2.10703133        3.39881705
 C            2.58766656       -0.07169783        3.30322332
 C            2.58816022       -1.43452141        2.82295882
 C            2.57134383        0.99292696        2.32548353
 C            0.62524750        1.18398949        3.59557346
 C            1.44403438        1.86007355        2.62469272
 C           -0.66496445       -0.76163192        3.54964916
 C           -0.62692273        0.63379944        3.13429771
 C           -1.31311099       -1.67335997        2.73331628
 C            0.80541672       -2.87903806        2.34097407
 C           -0.57462935       -2.80599960        2.17761097
 C            2.56086799       -1.66555914        1.38772824
 C            1.66340452       -2.78547269        1.16901687
 C            2.81748899        0.71040438        0.98091392
 C            2.53641665       -0.58059992        0.50215319
 C            2.66325261        1.78830963        0.11590268
 C            0.83444667        2.45699533        1.53377726
 C            1.71783721        2.81113649        0.52966118
 C           -1.08225480        0.98605778        1.85948679
 C           -0.45065974        2.02010539        1.14814100
 C           -2.16099481       -1.16525550        1.67608145
 C           -1.96951300        0.13401758        1.19866485
 C           -1.14773852       -3.09601262        0.87227281
 C           -2.32204592       -2.24863430        0.72774052
 C            1.11160744       -2.95619383       -0.09093273
 C           -0.30113260       -3.27951179       -0.21724892
 C            1.96606646       -0.75494260       -0.77174903
 C            1.42257281       -1.98470272       -1.12393594
 C            2.38520960        1.54161727       -1.28128822
 C            1.78661219        0.33433083       -1.62642315
 C            1.19208227        3.42977158       -0.65570121
 C            1.84240877        2.78680900       -1.78530187
 C           -0.94395706        2.37998955       -0.11970494
 C           -0.22657230        3.31247298       -0.88226516
 C           -2.42286692        0.45083817       -0.08246124
 C           -1.94236106        1.59906714       -0.72920343
 C           -2.77977971       -1.93048452       -0.53846057
 C           -3.09390106       -0.54173469       -0.80696404
 C           -0.73015377       -2.82902389       -1.53033679
 C            0.34914574       -2.02559287       -2.09683958
 C           -2.04265253       -2.40719420       -1.69970823
 C            0.80956144        0.28400847       -2.64138434
 C            0.03846764       -0.87668213       -2.82085029
 C            0.86679688        2.73364121       -2.84587887
 C           -0.35713343        3.32769626       -2.32324998
 C            0.48873580        1.43890477       -3.36611052
 C           -2.34134875        1.87221383       -2.04596165
 C           -1.45601234        2.61134041       -2.91842304
 C           -0.87240557        1.62830691       -3.81939397
 C           -3.20078312       -0.44790813       -2.24460985
 C           -2.33259275       -1.48514177       -2.78298673
 C           -1.22508387       -0.79661916       -3.41484649
 C           -2.83042931        0.79359550       -2.87888966
 C           -1.75795923        0.48884727       -3.81538454
