56
Modified xyz file
 C            1.43903167        0.02745783        4.20330911
 C            0.58597075       -1.14477444        4.11792084
 C            1.30905955       -2.17198860        3.39165250
 C            2.62348843       -0.22567561        3.40190703
 C            2.56616162       -1.60000122        2.93949216
 C            2.72930512        0.83395391        2.41437365
 C            0.72561452        1.13703199        3.59608663
 C            1.54752830        1.67434849        2.52614616
 C           -0.70877486       -0.72007719        3.61368154
 C           -0.61484749        0.68848946        3.26445698
 C           -1.40801529       -1.56411194        2.76296240
 C            0.66497620       -2.79630197        2.24939478
 C           -0.70632110       -2.65479617        2.08812381
 C            2.69033344       -1.86064080        1.51524385
 C            1.52265548       -2.61419958        1.08827112
 C            3.19765489        0.52408080        1.14599396
 C            3.17857331       -0.86341557        0.68523034
 C            2.76402864        1.34287385        0.02823107
 C            0.90982592        2.10421637        1.36349815
 C            1.61600251        2.12502555        0.15504553
 C           -1.17361631        1.13133819        2.06712263
 C           -0.48465410        2.09563531        1.33204678
 C           -2.31100253       -0.97537261        1.78911456
 C           -2.15306566        0.36129514        1.42885023
 C           -1.25804520       -2.74872744        0.74927348
 C           -2.48048612       -1.96336531        0.74549962
 C            0.94045397       -2.35351629       -0.15670361
 C           -0.40593148       -2.67672674       -0.35327368
 C            2.75341568       -0.84363277       -0.70165826
 C            2.91857897        0.52266152       -1.15502653
 C            1.61129812       -1.54616611       -1.08884065
 C            2.25458239        0.91104415       -2.30131210
 C            0.96274370        2.54932673       -1.00784665
 C            1.44598399        2.11446261       -2.24783892
 C           -1.12583058        2.69108075        0.25941724
 C           -0.33113524        3.06270213       -0.89456010
 C           -2.67465584        0.80084858        0.20727810
 C           -2.34431848        2.07924597       -0.23621619
 C           -2.99022465       -1.55285408       -0.47392128
 C           -3.20129936       -0.12952368       -0.69641907
 C           -0.97732874       -2.49248940       -1.60710921
 C           -2.37139403       -2.08421413       -1.67436237
 C            0.98635755       -1.19031352       -2.28950182
 C            1.44860750       -0.07700422       -2.99435758
 C           -0.24945227       -1.74394999       -2.61487850
 C            0.57214131        2.05624481       -3.40929576
 C            0.53482197        0.66694264       -3.84583152
 C           -1.22906681        3.08853902       -2.03875865
 C           -2.45480313        2.40871643       -1.64755546
 C           -0.79076227        2.52975239       -3.29970085
 C           -3.09754039        0.10005185       -2.13293953
 C           -2.50266056       -1.08833186       -2.72057699
 C           -1.21931446       -0.97364404       -3.38792714
 C           -0.85363993        0.25689531       -3.91767033
 C           -2.70437263        1.34636109       -2.60288591
 C           -1.67663599        1.42519243       -3.63265558
