56
Modified xyz file
 C            1.11028316       -0.07889326        3.77121021
 C            2.34238738       -0.37982170        3.07688321
 C            2.26521330       -1.75394214        2.61265951
 C            0.26798774       -1.26613126        3.71342169
 C            0.89666922       -2.19863808        2.80174123
 C           -1.08069329       -0.83299785        3.43519317
 C            0.31115926        1.04179731        3.31248265
 C           -1.06927487        0.62012379        3.39333208
 C            0.71126608        1.77555444        2.19438537
 C            2.71108586        0.43960240        1.94325568
 C            1.99831376        1.59737930        1.65373223
 C            2.82458374       -1.80986589        1.27078230
 C            3.05906040       -0.43922329        0.83812233
 C            2.26333137       -2.70170401        0.37167244
 C            0.20542198       -2.67826705        1.68960751
 C            0.97594555       -3.29286331        0.70654846
 C           -1.72337011       -1.29555595        2.21947303
 C           -1.03529477       -2.11645991        1.33189149
 C           -1.96183805        1.02684023        2.33167649
 C           -2.47111321       -0.17593782        1.68598232
 C           -0.25748236        2.49575294        1.47609803
 C           -1.60597566        2.09548840        1.51966418
 C            0.16504021        3.44045655        0.53927370
 C            2.30455683        2.19891987        0.44031301
 C            1.48489703        3.29193170       -0.03157563
 C            2.72296065       -0.03698985       -0.45938514
 C            2.59380608        1.33082104       -0.69358470
 C            2.16714081       -2.30849605       -1.01762879
 C            2.10116250       -0.94717162       -1.32609486
 C            0.35354086       -3.68849724       -0.53830879
 C            1.22808612       -3.23766781       -1.61243794
 C           -1.48700002       -2.18937232        0.00873580
 C           -0.96353528       -3.17321926       -0.83078529
 C           -2.74024652       -0.12584049        0.31942562
 C           -2.32742754       -1.18284115       -0.50432211
 C           -2.41995652        2.30085771        0.41170646
 C           -2.98549911        1.13191160       -0.24289386
 C           -0.71200987        3.82780114       -0.54964514
 C           -2.03722440        3.25238282       -0.60839639
 C            1.32406040        3.12383289       -1.46661532
 C            1.77542665        1.78550706       -1.79848046
 C           -0.03079403        3.49892799       -1.79467931
 C            1.20291056       -0.48513207       -2.30706840
 C            0.90393463        0.87980814       -2.39462576
 C            0.38232434       -2.77356368       -2.68511210
 C           -0.99438545       -2.98772296       -2.26569929
 C            0.47907316       -1.38691479       -3.08785264
 C           -2.52569787       -1.06657589       -1.88267974
 C           -1.77366149       -1.89777102       -2.80057654
 C           -0.85306618       -1.01338588       -3.50214478
 C           -2.87535595        1.33237055       -1.68113132
 C           -2.17634971        2.59048014       -1.89378249
 C           -0.85972908        2.54639214       -2.50284698
 C           -0.35169913        1.30147608       -2.87270001
 C           -2.52344908        0.25350567       -2.47550731
 C           -1.28950009        0.34154170       -3.24270913
