56
Modified xyz file
 C            1.50639782        0.05485207        4.03139598
 C            0.69280709       -1.14923101        4.01058883
 C            1.40880834       -2.15331346        3.24687673
 C            2.61091320       -0.14208835        3.10943702
 C            2.62118338       -1.53619278        2.73076844
 C            2.50294546        0.85372130        2.05627016
 C            0.69571562        1.14375987        3.51880064
 C            1.36176596        1.69981136        2.35525711
 C           -0.64653118       -0.77648929        3.59166534
 C           -0.66183510        0.65914498        3.35274772
 C           -1.34034293       -1.60458513        2.71719729
 C            0.73453308       -2.80943775        2.13653193
 C           -0.62753961       -2.62565547        1.95483744
 C            2.70593010       -1.84983926        1.32174658
 C            1.61356382       -2.74525751        0.98250962
 C            2.71399880        0.48512261        0.72972760
 C            3.02044191       -0.85011359        0.41015620
 C            2.21634856        1.32948552       -0.26711611
 C            0.56578236        2.13478717        1.30069676
 C            1.07811970        2.10789366        0.00014037
 C           -1.40018652        1.15283709        2.28111447
 C           -0.81622931        2.13710992        1.47576629
 C           -2.32942714       -1.01208300        1.83435603
 C           -2.43606417        0.37150921        1.75760433
 C           -1.16218394       -2.62585429        0.60527229
 C           -2.34265325       -1.77628662        0.59859575
 C            1.08568171       -2.66783932       -0.30975149
 C           -0.30523853       -2.60898622       -0.49293013
 C            2.97382617       -1.23361952       -0.92364246
 C            1.93540160       -2.17983076       -1.30705520
 C            2.63964170        1.12469567       -1.57536096
 C            3.04317285       -0.21223615       -1.94568691
 C            1.85923626        1.65372717       -2.67133865
 C            0.29603605        2.62427410       -1.04573829
 C            0.62752029        2.34794453       -2.37124751
 C           -1.59691420        2.76606986        0.51928572
 C           -1.00451764        3.05312516       -0.77650357
 C           -3.20523957        0.89479927        0.72469405
 C           -2.93037703        2.24862842        0.29115131
 C           -2.71964713       -1.13204128       -0.57765114
 C           -3.39448751        0.08532268       -0.47298312
 C           -0.83770345       -2.24076070       -1.72708428
 C           -2.07418017       -1.47065863       -1.77065801
 C            1.40277888       -1.75892540       -2.59081048
 C            2.20137678       -0.63565996       -3.05142904
 C            1.53511902        0.54625374       -3.56184240
 C            0.02960137       -1.75749514       -2.78668396
 C           -0.39384877        1.81575054       -3.26115193
 C           -1.96008911       -0.50222892       -2.85649414
 C            0.09281928        0.53057751       -3.72887605
 C           -0.62677615       -0.62179824       -3.42552220
 C           -2.02864019        2.83861290       -1.78724464
 C           -3.21767288        2.33318798       -1.12854068
 C           -3.44495174        0.98322927       -1.61396215
 C           -1.72522724        1.94956664       -2.89260533
 C           -2.54296270        0.75270754       -2.72528117
