56
Modified xyz file
 C            1.58744280        0.13853863        3.78864672
 C            0.75478952       -1.04556562        3.67851838
 C            1.33657529       -1.90852274        2.66838132
 C            2.57302798        0.08859488        2.72207862
 C            2.45168262       -1.19305368        2.06258319
 C            2.42650611        1.28405256        1.91907598
 C            0.74345609        1.29351758        3.54798813
 C            1.38121599        2.09784890        2.52422348
 C           -0.61851295       -0.61733217        3.50922779
 C           -0.61144363        0.82375362        3.30900693
 C           -1.45240549       -1.39611118        2.72536322
 C            0.49674821       -2.65031214        1.83921202
 C           -0.89176330       -2.50980934        1.96698874
 C            1.03454055       -3.13378954        0.64834803
 C            2.60346420       -1.25829776        0.68212498
 C            2.14123208       -2.40868838        0.04558985
 C            2.47378922        1.17011174        0.53090290
 C            2.75190608       -0.07593482       -0.05652639
 C            1.94123994        2.20714415       -0.24224929
 C            0.56568140        2.84479265        1.68962993
 C            0.97463748        3.04298085        0.31252857
 C           -1.33653606        1.38178957        2.25435756
 C           -0.86169710        2.55629720        1.66489301
 C           -2.42975247       -0.74281031        1.87528023
 C           -2.31224169        0.62044832        1.60083131
 C           -1.77093276       -2.73779384        0.82432167
 C           -2.76025172       -1.67080361        0.80380578
 C            0.15642633       -3.57560537       -0.41926592
 C           -1.24537042       -3.21431914       -0.36941022
 C            1.96383002       -2.42878720       -1.39783872
 C            0.70069976       -3.09036806       -1.67711745
 C            2.88307163       -0.16652268       -1.44038128
 C            2.29223079       -1.29918376       -2.13012796
 C            2.09290252        2.19097764       -1.62413966
 C            2.62752235        1.00484473       -2.25854132
 C            1.00258466        2.67455821       -2.45588788
 C           -0.22354085        3.35246205       -0.45131258
 C           -1.36825918        2.98138716        0.36902851
 C           -0.23518569        3.09415615       -1.81665215
 C           -2.98417214        1.14857724        0.49860578
 C           -2.43539864        2.29958672       -0.19753273
 C           -3.21317499       -1.17045316       -0.41025800
 C           -3.51986086        0.24545983       -0.50581935
 C           -1.57830729       -2.55221639       -1.62298875
 C           -0.34337429       -2.34319253       -2.35876892
 C           -2.54949573       -1.56377869       -1.64561094
 C            1.30671461       -0.75464185       -3.04882579
 C            1.70276169        0.61259100       -3.31393674
 C            0.67763671        1.62507673       -3.40818773
 C           -0.04084334       -1.08285465       -2.87523901
 C           -1.31280994        2.30130822       -2.38905252
 C           -2.43466689        2.00450734       -1.62441582
 C           -3.07153870        0.71197592       -1.80689225
 C           -2.30992911       -0.36132299       -2.42330992
 C           -0.70042034        1.24296992       -3.17802674
 C           -1.03243109       -0.08823791       -2.91322661
