56
Modified xyz file
 C            1.38231906       -0.06742365        3.66621286
 C            2.64162177       -0.26498092        2.97281940
 C            2.59591121       -1.57138307        2.33768217
 C            0.54045271       -1.22594379        3.40332426
 C            1.24256702       -2.08502834        2.47342461
 C           -0.77818745       -0.74585327        3.03960379
 C            0.59593542        1.12027951        3.38378489
 C           -0.78466314        0.69581848        3.21934069
 C            1.11433087        2.11385925        2.55757256
 C            3.05862833        0.69955009        1.97051561
 C            2.35583784        1.89236149        1.82417366
 C            3.16305324       -1.44550184        1.00524768
 C            3.48241986       -0.04082523        0.79139424
 C            2.59673860       -2.18592080       -0.02563649
 C            0.57869939       -2.53128989        1.33548230
 C            1.33321623       -2.86508483        0.21148311
 C           -1.42082797       -1.28864991        1.92960722
 C           -0.79553742       -2.30965740        1.19795697
 C           -2.50350281       -0.59364830        1.38064915
 C           -1.65062122        1.45746559        2.44655359
 C           -2.61870565        0.77807327        1.60249939
 C            0.22017430        2.87990042        1.70274846
 C           -1.14215432        2.59810489        1.69719077
 C            2.21043182        2.49020279        0.50602591
 C            0.91187680        3.14434478        0.45010923
 C            3.32661190        0.52141400       -0.47215263
 C            2.70499857        1.82987537       -0.61412162
 C            2.54671656       -1.63602155       -1.37109496
 C            2.88931923       -0.30548039       -1.58719183
 C            0.67791772       -3.03668451       -1.07394868
 C            1.38419697       -2.20514135       -2.03875204
 C           -1.45326423       -2.87697222        0.10926652
 C           -0.70734535       -3.11813853       -1.11392855
 C           -3.24461241       -1.16534132        0.35171193
 C           -2.76269070       -2.38193454       -0.26745521
 C           -3.75246255       -0.30631786       -0.70562921
 C           -2.92230773        1.65735573        0.48505386
 C           -1.89794133        2.68932303        0.45559263
 C           -3.37712466        1.09795766       -0.70316624
 C            0.19942834        3.17407322       -0.74440668
 C           -1.24261861        2.97893457       -0.73650636
 C            1.94500417        1.83421674       -1.85497776
 C            2.07636744        0.52074258       -2.46702498
 C            0.73506117        2.51693620       -1.92692197
 C            0.66589008       -1.44135565       -2.95310925
 C            1.00088743       -0.03893060       -3.14926794
 C           -1.43479951       -2.48220377       -2.20005020
 C           -2.76867938       -2.18337681       -1.70986818
 C           -3.34663478       -0.87962867       -1.97794885
 C           -0.78123605       -1.57307260       -3.02763737
 C           -2.66517189        1.36765143       -1.94463291
 C           -1.60658532        2.27110502       -1.95502675
 C           -0.37966623        1.94535743       -2.66720310
 C           -0.24164948        0.70616480       -3.28422270
 C           -2.55615978        0.11621997       -2.67955539
 C           -1.34146405       -0.24549670       -3.25558957
