56
Modified xyz file
 C            1.55626724       -0.00665828        4.13754700
 C            0.73397442       -1.18784691        3.93821731
 C            1.50241434       -2.11692097        3.14306110
 C            2.67189396       -0.08803582        3.20895974
 C            2.69689014       -1.42698806        2.67382003
 C            2.56109311        1.01851856        2.28018794
 C            0.75781881        1.14901792        3.77126917
 C            1.43803622        1.84665080        2.69645669
 C           -0.55887707       -0.75287094        3.43693229
 C           -0.59746911        0.69832268        3.53851947
 C           -1.11737016       -1.37134277        2.31312725
 C            0.86768427       -2.71350765        1.98737107
 C           -0.47949446       -2.48532206        1.73402615
 C            2.75682619       -1.59161709        1.23413577
 C            1.79449153       -2.61889734        0.87449999
 C            2.76849998        0.81875715        0.91486222
 C            2.89174552       -0.48497518        0.39786531
 C            2.39075482        1.86325595        0.07428257
 C            0.67685349        2.47409724        1.71097684
 C            1.28267125        2.71372865        0.48110622
 C           -1.36032746        1.40216672        2.62210017
 C           -0.71684713        2.40704761        1.78191045
 C           -2.14009251       -0.70258854        1.62285388
 C           -2.28460364        0.67140403        1.77618795
 C           -2.77067511       -1.30929593        0.54337429
 C           -0.95784733       -2.99381222        0.53436123
 C           -2.24772115       -2.56144603        0.04954131
 C            1.27841896       -2.63716883       -0.42175863
 C           -0.04397083       -3.04767626       -0.60008291
 C            2.71354695       -0.71266895       -0.96510591
 C            1.87980341       -1.83085240       -1.38803516
 C            2.30241600        1.66510232       -1.35984220
 C            2.47873071        0.39268041       -1.87567005
 C            0.47413748        2.98496767       -0.69745937
 C            1.21921119        2.50070541       -1.85386301
 C           -1.51688037        2.52811345        0.57039167
 C           -2.53731001        1.49033148        0.60358563
 C           -0.91259155        2.83658121       -0.64326545
 C           -3.14975258       -0.49841084       -0.60860199
 C           -2.92077236        0.88294057       -0.58960397
 C           -2.17379886       -2.47928019       -1.39797365
 C           -0.78395925       -2.64104023       -1.78557238
 C           -2.86794068       -1.27704628       -1.81202965
 C            1.12847291       -1.40792574       -2.56138730
 C            1.60564508       -0.08250220       -2.93734699
 C           -0.22458559       -1.72780114       -2.67469662
 C            0.52909872        2.12916745       -2.99993378
 C            0.74045653        0.80302210       -3.56745651
 C           -1.61844132        2.56722629       -1.81386900
 C           -2.67046015        1.55979520       -1.78311674
 C           -0.89039320        2.41304295       -3.06103133
 C           -2.41500172       -0.62252542       -2.94657234
 C           -1.06966364       -0.91229620       -3.43161459
 C           -0.54311887        0.30553448       -4.02378698
 C           -2.60252250        0.80968999       -3.02331260
 C           -1.52536467        1.35745217       -3.82854161
