56
Modified xyz file
 C            1.16231940        0.16463938        4.09282698
 C            2.41535791        0.02968805        3.38575364
 C            2.48238820       -1.34021342        2.91378098
 C            0.36142362       -1.01606782        3.77722292
 C            1.11296221       -1.80991800        2.83130659
 C           -0.95846253       -0.55942611        3.40496626
 C            0.34734279        1.32356347        3.79858147
 C           -1.01788727        0.85173862        3.73173370
 C            0.59451564        2.05847079        2.56652245
 C            2.64657574        0.86983095        2.22314401
 C            1.58861288        1.61903097        1.69680451
 C            3.26903235       -1.31857043        1.69999353
 C            3.46726169        0.07965364        1.33677941
 C            2.73532400       -1.97682615        0.52485927
 C            0.57087735       -2.07904222        1.57438528
 C            1.43621420       -2.47570538        0.54633526
 C           -1.52304823       -0.97313883        2.19885942
 C           -0.74064516       -1.67111206        1.26380025
 C           -2.64343245       -0.26975427        1.75132419
 C           -1.71748681        1.71202517        2.80700517
 C           -0.70017882        2.43042248        2.03936301
 C           -2.76219388        1.14517580        2.09877394
 C           -0.87417689        2.56272634        0.66402991
 C            1.37235472        1.66235795        0.30637401
 C            0.14809848        2.14483828       -0.20922132
 C            3.23805654        0.18750507       -0.08343420
 C            3.13035176       -1.16327276       -0.60711851
 C            2.34855981        1.13981262       -0.56077990
 C            2.45538262       -1.33981240       -1.81059052
 C            0.89924902       -2.86605134       -0.67104840
 C            1.54990747       -2.40374768       -1.88883277
 C           -1.24686735       -1.91171448       -0.01935942
 C           -0.52694729       -2.73003110       -0.87941322
 C           -3.09177043       -0.42711089        0.37779669
 C           -2.29220960       -1.12791272       -0.52064997
 C           -3.18867434        1.83926278        0.90691423
 C           -2.19028577        2.62244343        0.20672063
 C           -3.67004769        0.84109655       -0.02508897
 C           -2.46951674        2.47552178       -1.20051716
 C           -3.37631762        1.34095731       -1.34874084
 C           -0.06766480        2.17951657       -1.59978680
 C           -1.36406338        2.25784914       -2.10431707
 C            2.09588541        1.08430932       -1.92143967
 C            2.25302301       -0.19925574       -2.59127944
 C            0.92031126        1.72258377       -2.46217888
 C            1.34377566       -0.22577973       -3.72191800
 C            0.52947398        0.97749268       -3.65396067
 C            0.55464176       -2.45752727       -2.94647636
 C           -0.74469472       -2.62169644       -2.30881187
 C            0.45877859       -1.36010443       -3.88776156
 C           -2.36621560       -0.83160821       -1.89295301
 C           -2.75891737        0.44219772       -2.29931224
 C           -1.81114066        1.24515649       -3.04493370
 C           -0.86131073        0.58790402       -3.81170033
 C           -1.61683260       -1.57553227       -2.79885529
 C           -0.90706933       -0.86683900       -3.85547761
