56
Modified xyz file
 C            1.08250506       -0.01003131        4.45906604
 C            0.37161290       -1.18512179        3.98208199
 C            1.30543520       -2.00021539        3.24376265
 C            2.39579992       -0.00436545        3.83659122
 C            2.54471849       -1.24721282        3.10765520
 C            2.53748447        1.24362416        3.11502130
 C            0.36478550        1.16370563        3.98902685
 C            1.29384042        1.98856302        3.25553889
 C           -0.82454704       -0.73567475        3.30097311
 C           -0.82875770        0.71135050        3.30525485
 C           -1.23655221       -1.35983079        2.12700046
 C            0.92165826       -2.45385687        1.91935450
 C           -0.36162211       -2.21779284        1.43635862
 C            2.87319765       -1.20817221        1.69159226
 C            2.03375183       -2.19642343        1.03115702
 C            2.86614763        1.21487810        1.69875243
 C            3.12288458        0.00600963        1.04575711
 C            0.90740709        2.44779546        1.93383035
 C            2.02097400        2.20212661        1.04415016
 C           -1.24441383        1.34002958        2.13497909
 C           -0.37446160        2.20707307        1.44940292
 C           -2.22910918       -0.71331130        1.39149824
 C           -2.23321118        0.69210977        1.39566078
 C           -2.77067911       -1.41253672        0.31875281
 C           -0.58513375       -2.44215927        0.07527789
 C           -1.88920478       -2.31065276       -0.39664991
 C            1.77275864       -2.04381434       -0.32508904
 C            0.49739797       -2.35387867       -0.81432843
 C            3.10224775        0.01005947       -0.34555224
 C            2.56942182       -1.15141747       -1.03642480
 C            1.76084989        2.05602181       -0.31299215
 C            2.56266622        1.17247470       -1.02957033
 C           -0.59930398        2.43820247        0.08967048
 C            0.48371220        2.36158122       -0.80042428
 C           -2.77882965        1.39448732        0.32702957
 C           -1.90258849        2.30190524       -0.38303992
 C           -3.60821907       -0.73044041       -0.64688709
 C           -3.61241386        0.71324116       -0.64262834
 C           -2.14866089       -2.15661101       -1.81748933
 C           -3.21470521       -1.17787312       -1.97283681
 C            0.27028954       -2.26384675       -2.18919750
 C           -1.08362307       -2.14438938       -2.70382269
 C            2.15424243       -0.71722432       -2.35885052
 C            2.14999951        0.74367917       -2.35455083
 C            1.13014340       -1.40880891       -2.99259516
 C            0.25709097        2.27828117       -2.17580681
 C            1.12188695        1.43300952       -2.98422304
 C           -2.16117849        2.15475056       -1.80476085
 C           -3.22152430        1.17078047       -1.96590255
 C           -2.98970343       -0.00043716       -2.79732713
 C           -1.09611632        2.15394805       -2.69112992
 C           -1.06987095       -1.16726457       -3.78183932
 C            0.29871998       -0.71281782       -3.95866295
 C            0.29449836        0.73788654       -3.95438339
 C           -1.92698428        0.00529517       -3.69333263
 C           -1.07671413        1.18331202       -3.77489884
