56
Modified xyz file
 C            1.11352249       -0.18487956        3.95862063
 C            2.31208059       -0.38903238        3.16867466
 C            2.17984024       -1.67382912        2.49824112
 C            0.26075280       -1.34825348        3.76588384
 C            0.81588725       -2.12085434        2.66895119
 C           -1.10247890       -0.87992822        3.66064319
 C            0.30300837        0.99800205        3.72610718
 C           -1.08283792        0.57455692        3.69995761
 C            0.72843381        1.96390780        2.82039116
 C            2.67934069        0.59592492        2.16516441
 C            1.95198074        1.77035705        2.04737320
 C            2.67632506       -1.51866798        1.14976406
 C            3.05069325       -0.12552298        0.96337621
 C            2.01526175       -2.15233503        0.10413829
 C            0.04820368       -2.35901979        1.52745811
 C            0.69845615       -2.59558992        0.30301882
 C           -1.87745154       -1.27141686        2.50199099
 C           -1.34059738       -2.14366230        1.56244966
 C           -1.95034218        1.05711157        2.63812248
 C           -2.58569435       -0.09798727        2.02288938
 C           -0.24117036        2.61741609        1.95177299
 C           -1.53767129        2.10526854        1.82353662
 C            1.73730235        2.33699591        0.72626324
 C            0.48647372        3.07306620        0.77412045
 C            2.84397287        0.43777222       -0.29543026
 C            2.05957290        1.59898153       -0.41487268
 C            2.42500869       -1.79291673       -1.17746186
 C            2.92481325       -0.44152163       -1.36977397
 C            1.61627738       -2.13768438       -2.33219222
 C           -0.03827892       -3.06189106       -0.78433450
 C            0.36294600       -2.70100618       -2.13378224
 C           -2.08650950       -2.32691080        0.40666679
 C           -1.48128614       -2.98486317       -0.72987788
 C           -2.95100608       -0.03974952        0.67670259
 C           -2.88100876       -1.20876417       -0.08521969
 C           -2.24291660        2.31865209        0.64437409
 C           -2.94369106        1.19770509        0.03126413
 C           -0.20292174        3.30152450       -0.40442273
 C           -1.63905236        3.10354555       -0.41583745
 C            1.44580094        1.92955111       -1.63541651
 C            0.32450585        2.76373069       -1.64721842
 C            2.52858168        0.00061354       -2.68516815
 C            1.78973880       -1.08288793       -3.31760147
 C            1.73472710        1.20256201       -2.78881068
 C            0.61842386       -0.50774676       -3.94940317
 C            0.65990981        0.92761788       -3.72693810
 C           -0.80559980       -2.15405053       -2.81737570
 C           -1.94104118       -2.30852301       -1.93179787
 C           -2.67790880       -1.12515816       -1.52367775
 C           -0.69539119       -0.98187209       -3.55557363
 C           -2.71862441        1.26502200       -1.40607113
 C           -2.00034473        2.49513412       -1.68440866
 C           -0.80769226        2.42822689       -2.50171720
 C           -0.67887979        1.36891345       -3.38641696
 C           -2.38276433        0.10663131       -2.10137014
 C           -1.49868049        0.17773431       -3.18574606
