56
Modified xyz file
 C            1.20084792       -0.07055407        3.99198920
 C            2.48863308       -0.34862172        3.39965558
 C            2.36135622       -1.61296129        2.68211061
 C            0.38404549       -1.25575953        3.79413839
 C            0.95895440       -1.96138169        2.66899751
 C           -0.98005401       -0.80303398        3.68864553
 C            0.42384521        1.04277667        3.47662121
 C           -0.95220841        0.65512384        3.68090808
 C            0.79182366        1.64260657        2.26641143
 C            3.02868517        0.62068417        2.46953976
 C            2.12878593        1.58892440        1.86035119
 C            3.03324077       -1.45946325        1.41542112
 C            3.62956388       -0.13537835        1.39237943
 C            2.40747219       -1.88833003        0.25253306
 C            0.28152800       -1.98101342        1.44542289
 C            1.01121532       -2.08939631        0.25174057
 C           -1.74658709       -1.19265885        2.52493885
 C           -1.09412921       -1.70544833        1.39918561
 C           -1.93486766        1.08081164        2.71287431
 C           -2.68229847       -0.10660977        2.33800813
 C           -0.19591839        2.02025375        1.33941699
 C           -1.55567954        1.95313584        1.69927096
 C            0.17427801        2.25201804        0.00331231
 C            2.44554725        1.63562855        0.44122199
 C            3.47656313        0.64071018        0.17482799
 C            1.40372115        1.80150955       -0.46520896
 C            3.01382913       -1.46934437       -0.92280673
 C            3.39792518       -0.06872037       -1.01272485
 C            2.41268698       -1.83228352       -2.18112334
 C            0.32305475       -2.18843792       -0.96859630
 C            1.05394982       -2.31819065       -2.15536456
 C           -1.73725463       -1.60033571        0.16269603
 C           -1.05339502       -1.91617908       -1.01406355
 C           -3.39196391       -0.06091735        1.15339777
 C           -2.98371784       -0.96181495        0.08818603
 C           -2.53554266        2.24055699        0.75308560
 C           -3.57293038        1.24342144        0.54013305
 C           -0.76155627        2.67663687       -0.92648336
 C           -2.15117239        2.75680145       -0.54225139
 C           -0.69858720        2.12997797       -2.27005775
 C            1.50971090        1.29019678       -1.76722030
 C            2.59747295        0.47633824       -2.08810714
 C            2.40726096       -0.63072708       -3.00111014
 C            0.41146132        1.36805421       -2.64034937
 C            0.48174468       -1.87823510       -3.41049303
 C            1.19927912       -0.66859074       -3.78938356
 C            0.25674775        0.42339696       -3.66192398
 C           -1.69706923       -1.70169569       -2.23793417
 C           -0.92583991       -1.56763018       -3.45319836
 C           -1.04675988       -0.17696220       -3.86469188
 C           -3.41241871       -0.35690675       -1.16303659
 C           -3.71456356        1.03951804       -0.88828036
 C           -2.93568418        2.06519325       -1.55404685
 C           -2.03548919        1.65882433       -2.61498110
 C           -2.72284467       -0.68149878       -2.32021079
 C           -2.17669790        0.38598131       -3.15377276
