56
Modified xyz file
 C            1.45042600        0.08643233        4.17956390
 C            0.63470136       -1.07430051        3.87462232
 C            1.46543203       -1.99806781        3.13982277
 C            2.61647525        0.03732990        3.31140935
 C            2.66614283       -1.28049607        2.72577849
 C            2.54887756        1.18410194        2.42858865
 C            0.68907448        1.26847244        3.81740741
 C            1.52918394        2.07784630        2.96199652
 C           -0.59047400       -0.60920914        3.25314506
 C           -0.59593132        0.84256543        3.29306574
 C           -1.06742391       -1.23301341        2.10512215
 C            0.91792658       -2.61656707        1.94868770
 C           -0.38265288       -2.32190911        1.53911898
 C            2.74852498       -1.39942874        1.28225707
 C            1.96670924       -2.57362355        0.95283296
 C            2.65137308        1.01929076        1.04222493
 C            2.62513934       -0.26496765        0.47248829
 C            2.36882648        2.12397764        0.24662350
 C            0.89958216        2.94029336        2.08026408
 C            1.54563333        3.18269327        0.80621008
 C           -1.13081205        1.53533112        2.20703466
 C           -0.51526658        2.72480857        1.79660511
 C           -1.99929215       -0.54456523        1.33310425
 C           -1.97125155        0.85630801        1.31812451
 C           -2.67420561       -1.24749358        0.34155007
 C           -0.77440934       -2.77193543        0.27493907
 C           -2.05163728       -2.44954172       -0.17673995
 C            1.60101224       -2.75902854       -0.36537545
 C            0.21816770       -3.10184481       -0.65416224
 C            2.24506471       -0.44239221       -0.86838139
 C            1.96612632       -1.73395832       -1.32472245
 C            1.95965381        1.93496554       -1.13030546
 C            1.95227417        0.66017562       -1.68200343
 C            0.51004651        3.50541775       -0.15804528
 C           -0.77405976        3.25520871        0.46504109
 C            0.82694905        2.81336662       -1.39118022
 C           -2.50547856        1.55259251        0.23505220
 C           -1.77552712        2.68422499       -0.30389878
 C           -3.27693859       -0.53814175       -0.77281630
 C           -3.07283947        0.82879324       -0.88922941
 C           -2.36051393       -2.53667408       -1.59504570
 C           -3.17508079       -1.38478916       -1.94796030
 C            0.01967915       -2.81419333       -2.06653561
 C            1.10427924       -1.92577705       -2.47753897
 C           -1.27000774       -2.62165653       -2.54730005
 C            1.23462485        0.48375962       -2.86739738
 C            0.84672507       -0.84520420       -3.30500764
 C           -0.20674098        2.33515184       -2.18995883
 C           -1.52152874        2.39479973       -1.71036212
 C           -2.49651111        1.38696233       -2.10936115
 C            0.12751504        1.38444448       -3.14882591
 C           -2.64777485       -0.82465888       -3.17826233
 C           -1.51214950       -1.63703741       -3.58781672
 C           -0.43918221       -0.73989230       -3.97387030
 C           -2.23133871        0.56764606       -3.20134519
 C           -0.91711778        0.62340748       -3.80923236
