56
Modified xyz file
 C            1.66241946        0.12131602        3.76597219
 C            0.83275886       -1.06976912        3.75057912
 C            1.29231067       -1.92569555        2.67036447
 C            2.56901459        0.04317715        2.63496969
 C            2.39784889       -1.24858019        2.00440027
 C            2.37412628        1.22217189        1.81904589
 C            0.79413402        1.26540826        3.55516562
 C            1.24832908        1.96048226        2.36168507
 C           -0.55492478       -0.64952085        3.75744851
 C           -0.57891855        0.80101129        3.61026123
 C           -1.47678712       -1.42667634        3.06770360
 C            0.35260271       -2.60696251        1.89711699
 C           -0.99984436       -2.52832160        2.24144317
 C            0.72392478       -3.02351553        0.61755289
 C            2.48895349       -1.32593360        0.61890945
 C            1.88084919       -2.40765614       -0.01119681
 C            2.45441418        1.08987815        0.44092026
 C            2.74313613       -0.16241767       -0.11693593
 C            1.83335958        2.05573680       -0.34670651
 C            0.30748872        2.47466010        1.47163338
 C            0.69077819        2.70383277        0.14623016
 C           -1.50679646        1.39339128        2.76351524
 C           -1.05373959        2.36426837        1.77581803
 C           -2.57048133       -0.78791243        2.35262989
 C           -2.54250218        0.58384182        2.13812756
 C           -2.01995874       -2.78390605        1.23938194
 C           -2.94741839       -1.66240029        1.25661078
 C           -0.28009401       -3.23940383       -0.41671900
 C           -1.61974311       -3.00734345       -0.13653565
 C            1.65280268       -2.37791137       -1.44682914
 C            0.27855686       -2.79500796       -1.68485762
 C            2.87887724       -0.26293855       -1.50038848
 C            2.20165490       -1.34490200       -2.19535031
 C            2.16861229        2.11835525       -1.69674223
 C            2.73768707        0.93535555       -2.31203410
 C            1.24067237        2.69280390       -2.64993406
 C           -0.26645725        3.20673986       -0.73500504
 C           -0.02273467        3.19892878       -2.16442337
 C           -2.03276493        2.36086687        0.70008801
 C           -2.76028411        1.10656348        0.79531990
 C           -1.64826108        2.81510050       -0.54903338
 C           -3.00938311       -1.12175854       -0.09062126
 C           -2.38067468       -2.08936109       -0.97107131
 C           -2.78703710        0.23875874       -0.29861702
 C           -0.51709651       -2.08382882       -2.57758588
 C           -1.84605621       -1.64775948       -2.17270162
 C            1.43287413       -0.75543447       -3.27991898
 C            1.91560236        0.60103643       -3.46555719
 C            0.95773818        1.67616511       -3.65072821
 C            0.07122473       -1.02508960       -3.38479400
 C           -1.08561535        2.41276263       -2.77554555
 C           -2.00427091        2.02695160       -1.71448387
 C           -2.34251762        0.68472708       -1.54770924
 C           -1.97061776       -0.24315436       -2.52260976
 C           -0.46389635        1.38212725       -3.58712302
 C           -0.89387534        0.06674220       -3.45113480
