56
Modified xyz file
 C            1.53128038       -0.00841479        3.88488027
 C            0.73200463       -1.20072751        3.66768457
 C            1.41873586       -2.02925055        2.69198243
 C            2.65836991       -0.06151717        2.97080384
 C            2.68776810       -1.38096809        2.37814121
 C            2.57901565        1.08636425        2.08689401
 C            0.71806890        1.13736179        3.51941329
 C            1.40564673        1.86134553        2.47072153
 C           -0.62585574       -0.78020712        3.38671808
 C           -0.62617983        0.66979643        3.24998004
 C           -1.37368820       -1.53010578        2.49239401
 C            0.68298845       -2.63851401        1.67128141
 C           -0.70743299       -2.51845609        1.65199600
 C            1.34339586       -3.06496200        0.52148721
 C            3.19811705       -1.50648706        1.09620385
 C            2.68606963       -2.57651452        0.26501016
 C            2.87085278        0.92543809        0.73056177
 C            3.31042180       -0.31488037        0.25770248
 C            2.35655290        1.85352117       -0.17250549
 C            0.64734592        2.45425432        1.46927852
 C            1.27744803        2.72439861        0.26021983
 C           -1.32693438        1.24664986        2.19361663
 C           -0.74461323        2.31314808        1.49053227
 C           -2.36427872       -0.85670594        1.67269728
 C           -2.38516614        0.53209281        1.62137816
 C           -1.42208268       -2.57564824        0.38351923
 C           -2.50320055       -1.60151853        0.43330952
 C            0.63597041       -3.09574917       -0.75161900
 C           -0.71958131       -2.76212108       -0.80194390
 C            2.74362400       -2.13328526       -1.11450388
 C            3.01863950       -0.70837227       -1.11498231
 C            1.54706548       -2.60251809       -1.78001882
 C            2.07466831        1.45422067       -1.54411785
 C            2.25223888        0.12835414       -1.92382730
 C            0.48077444        3.06452331       -0.90437343
 C            0.89920774        2.18890901       -1.99305077
 C           -1.49783697        2.98017392        0.52749304
 C           -0.86609152        3.34401869       -0.73334349
 C           -3.14455662        1.12686373        0.62187165
 C           -2.82476957        2.48284911        0.22726411
 C           -2.87611084       -0.91640748       -0.72122170
 C           -3.42196770        0.36223298       -0.58770456
 C           -1.27076253       -2.29523559       -1.99355834
 C           -2.35675080       -1.32399586       -1.95382813
 C            1.03446531       -1.83367453       -2.81113142
 C            1.41364156       -0.42640202       -2.89354233
 C           -0.38507854       -1.91972154       -3.08008540
 C           -0.05207870        1.55433912       -2.79332286
 C           -2.11960180       -0.34688714       -3.01432871
 C            0.25381464        0.32023619       -3.36204765
 C           -0.81918824       -0.63160284       -3.58518310
 C           -1.77964686        3.00103825       -1.80448731
 C           -3.03870798        2.59882948       -1.20397849
 C           -3.36645145        1.27833541       -1.71148726
 C           -1.38549289        1.97214501       -2.75110231
 C           -2.45408605        0.97941065       -2.79374054
