56
Modified xyz file
 C            1.26237349       -0.12630303        3.55905273
 C            2.46605183       -0.43871113        2.82886366
 C            2.36088086       -1.80908704        2.35121910
 C            0.40442480       -1.30130846        3.53806645
 C            1.07711702       -2.33754383        2.77569802
 C           -0.92518644       -0.87637354        3.13005788
 C            0.46989950        1.00641178        3.12646438
 C           -0.91637116        0.57583820        3.04789726
 C            0.95276004        1.88286838        2.15450701
 C            2.82178438        0.39599412        1.69974388
 C            2.12724807        1.57804413        1.44203539
 C            2.69273242       -1.81536754        0.93533101
 C            3.14501018       -0.47825515        0.58415976
 C            1.88678125       -2.51820883        0.04555071
 C            0.33593232       -3.09036153        1.87596116
 C            0.86469725       -3.32949433        0.54127481
 C           -1.61439731       -1.60950721        2.16945085
 C           -1.08670529       -2.82301902        1.72503911
 C           -2.62464385       -0.97983480        1.44431222
 C           -1.76418335        1.22295182        2.15272229
 C           -2.71441474        0.47392257        1.45355481
 C            0.04188212        2.80217829        1.63696423
 C           -1.37595696        2.47285261        1.67214951
 C            0.31232439        3.49154639        0.38838962
 C            2.38056767        2.19519127        0.21826098
 C            1.46810846        3.19157400       -0.31273674
 C            2.95589810       -0.00209499       -0.71059653
 C            2.84896075        1.37631421       -0.89079396
 C            1.89897575       -2.15389551       -1.29982688
 C            2.46783958       -0.87107677       -1.69013288
 C            0.73919234       -2.40677853       -2.14564479
 C           -0.26587763       -3.66637626       -0.30727599
 C           -1.48103043       -3.35098755        0.42986695
 C           -0.36767854       -3.06031249       -1.62039030
 C           -2.97482140       -1.44285900        0.10735665
 C           -2.33175765       -2.55056953       -0.42894274
 C           -1.68474798       -2.45080907       -1.72868059
 C           -3.17134410        0.89878638        0.13495636
 C           -3.21574578       -0.27413971       -0.72344538
 C           -1.98988523        3.00815370        0.47101508
 C           -0.94512572        3.62116883       -0.33236726
 C           -2.75233596        2.11811487       -0.38089296
 C           -1.05131406        3.09696999       -1.68461612
 C           -2.18170026        2.18088663       -1.71913815
 C            1.40041184        3.01240450       -1.75522790
 C            2.26877777        1.90285752       -2.11239730
 C            0.10960653        2.79566803       -2.38886254
 C            1.68666996       -0.36206018       -2.81204826
 C            0.55437910       -1.25263545       -3.01049642
 C            1.52675899        1.00752119       -2.97670849
 C            0.19380322        1.56434817       -3.16018293
 C           -1.85587415       -1.30589154       -2.50061770
 C           -2.68279582       -0.21481943       -2.00696930
 C           -2.12195656        1.03297186       -2.50284391
 C           -0.71873695       -0.72456573       -3.19839801
 C           -0.90726264        0.71770774       -3.23968784
