56
Modified xyz file
 C            1.57266950       -0.13100107        4.15834110
 C            0.72722470       -1.31202578        4.18024315
 C            1.24386552       -2.24107779        3.19389352
 C            2.56875639       -0.31201513        3.11571533
 C            2.44843340       -1.66789523        2.61623959
 C            2.44478801        0.79102937        2.17322138
 C            0.74457027        0.99519686        3.77370272
 C            1.38941331        1.66465001        2.65819229
 C           -0.60383621       -0.91771925        3.75016526
 C           -0.61334310        0.52168023        3.57589424
 C            0.15178156       -2.59917155        2.30143142
 C           -0.97841616       -1.74335303        2.61517535
 C            0.44091729       -2.83622209        0.96498120
 C            2.68116376       -1.88784417        1.26865223
 C            1.76902594       -2.75384418        0.54740010
 C            2.52767449        0.52728840        0.80327852
 C            2.91560545       -0.74672124        0.39286634
 C            1.85466645        1.36691538       -0.09527999
 C            0.57523323        2.27553801        1.71834374
 C            1.05825733        2.39858167        0.42206627
 C           -1.31370969        1.04450209        2.49675534
 C           -0.80539503        2.19328429        1.89571383
 C           -1.67348849       -1.14619522        1.56644406
 C           -2.08126605        0.18163248        1.71135428
 C           -0.56319184       -2.63911490        0.01796227
 C           -1.57237123       -1.69504812        0.28143012
 C           -0.29182062       -3.02638902       -1.29193657
 C            2.04387430       -2.53262113       -0.85760792
 C            2.60727653       -1.18903878       -0.95579186
 C            1.07636437       -2.90796617       -1.77450381
 C            1.76578798        1.01511217       -1.45395574
 C            2.05933928       -0.28937686       -1.86547051
 C            1.13318880        1.87075433       -2.35375852
 C            0.37607676        3.25676150       -0.43103424
 C            0.45363247        3.05089470       -1.85941121
 C           -1.62506847        2.87546391        1.00415568
 C           -1.00259324        3.57824438       -0.10628424
 C           -2.88349866        0.74158517        0.72591889
 C           -2.78517829        2.17363507        0.48510615
 C           -2.33017648       -1.13771653       -0.76308835
 C           -2.97105147        0.08177144       -0.56419007
 C           -1.17533230       -2.60063144       -2.35317500
 C           -2.09812229       -1.52275380       -2.08061680
 C            1.02437449       -2.18180141       -3.02561203
 C            1.46908589       -0.79907177       -3.02587305
 C           -0.35130810       -2.21054820       -3.48477552
 C            0.28043351        1.30263368       -3.38095121
 C           -1.89207108       -0.48682266       -3.08542970
 C            0.46340684       -0.02222826       -3.73367087
 C           -0.71713632       -0.85537003       -3.85237607
 C           -0.90772601        3.02533563       -2.38018292
 C           -1.80843734        3.34864573       -1.29406304
 C           -2.84465558        2.39887347       -0.94944825
 C           -2.85963430        1.09990624       -1.59834276
 C           -1.06807343        1.76784974       -3.09184575
 C           -2.04998608        0.84381890       -2.70596838
