56
Modified xyz file
 C            1.55998986       -0.07252408        4.11482755
 C            0.71481746       -1.25451507        4.12357418
 C            1.44295463       -2.31370699        3.45993379
 C            2.64240943       -0.31633093        3.17674720
 C            2.60952869       -1.71622069        2.82257679
 C            2.53557377        0.66483853        2.11502573
 C            0.77117743        1.03432470        3.59907837
 C            1.44374398        1.56207190        2.43797307
 C           -0.58977577       -0.86743466        3.61295192
 C           -0.58655022        0.57820913        3.42886201
 C           -1.25702850       -1.66254495        2.67426102
 C            0.75126863       -3.10477778        2.46192156
 C           -0.59747020       -2.73348386        2.06223677
 C            2.57060459       -2.07107798        1.41773176
 C            1.56921322       -3.10540394        1.26200395
 C            2.67392773        0.27774573        0.78352143
 C            2.63571696       -1.08348693        0.43646528
 C            2.30076273        1.21071069       -0.18885654
 C            0.67630950        2.02493540        1.37851954
 C            1.30222010        2.13623390        0.14188930
 C           -1.34321366        1.09881535        2.38600005
 C           -0.72402525        1.91092949        1.41551345
 C           -2.33177035       -1.08923620        2.00111716
 C           -2.45769491        0.35729421        2.02663520
 C           -2.60300349       -1.49485901        0.63240387
 C           -0.67822146       -2.88905999        0.61387585
 C            0.67904427       -3.01831016        0.11731062
 C           -1.59169923       -2.11094111       -0.09796480
 C            2.19096506       -1.42093907       -0.84062239
 C            1.05026168       -2.22454541       -0.95544210
 C            2.51752989        0.87378363       -1.52293219
 C            2.47779067       -0.53307049       -1.86889742
 C            1.85575285        1.61627222       -2.58283881
 C            0.64678815        2.85376186       -0.84775267
 C            0.96143804        2.62487907       -2.24624322
 C           -1.46059964        2.36040281        0.30433529
 C           -0.78979983        3.02323547       -0.72611040
 C           -3.22510134        0.74854138        0.86980019
 C           -3.37712203       -0.43273758        0.03035204
 C           -2.71447803        1.80985015        0.02956726
 C           -3.07127965       -0.03396370       -1.32312016
 C           -3.03865450        1.41845540       -1.33179965
 C           -1.24009785       -1.61391323       -1.36840918
 C            0.05668866       -1.85062112       -1.85380007
 C           -2.10240628       -0.72617631       -2.04179227
 C            1.74852161       -0.66142495       -3.11676809
 C            1.53447316        0.67324847       -3.64467500
 C            0.46325636       -1.32696526       -3.07391562
 C           -1.73335598       -0.18708244       -3.27221393
 C            0.21434435        0.68820119       -4.24857099
 C           -0.46174671       -0.54255539       -3.85896253
 C           -0.26151355        2.81143699       -3.01333070
 C           -1.35102606        3.01064140       -2.07024144
 C           -2.39918329        2.05510430       -2.38392120
 C           -0.67730604        1.79588844       -3.96457115
 C           -1.93294967        1.23809748       -3.49325971
