56
Modified xyz file
 C            1.50112518       -0.05866277        4.07203655
 C            0.71908665       -1.27696799        3.98290479
 C            1.57966798       -2.28470799        3.40024698
 C            2.63550800       -0.20443000        3.17357237
 C            2.70434752       -1.59381882        2.78265225
 C            2.50565653        0.80265756        2.13696857
 C            0.68203094        1.02453505        3.56348998
 C            1.43737250        1.70036952        2.52705239
 C           -0.53944754       -0.95367264        3.32210302
 C           -0.61618723        0.48902279        3.19664518
 C           -0.99630954       -1.73879292        2.26690127
 C            1.01519284       -3.16806907        2.40327746
 C           -0.34252856       -2.93475786        1.94690128
 C            2.68825565       -1.91812212        1.36939888
 C            1.85998629       -3.09574553        1.22116124
 C            2.59235222        0.44651283        0.79132541
 C            2.56179916       -0.90790808        0.41871808
 C            2.20579899        1.40630465       -0.15063858
 C            0.71790488        2.30042838        1.50550915
 C            1.33050458        2.42068567        0.25905898
 C           -1.22843019        1.03382611        2.07373631
 C           -0.67264777        2.19334500        1.54062019
 C           -1.88063802       -1.18247395        1.33760683
 C           -1.99171913        0.21666004        1.23288291
 C           -2.32844595       -1.99977346        0.30197301
 C           -0.36318617       -3.39412904        0.57205882
 C            0.98159159       -3.17831716        0.06415014
 C           -1.42581948       -3.00722608       -0.22268302
 C            2.09982001       -1.25099511       -0.85212123
 C            1.15439992       -2.27897813       -0.98770725
 C            2.30785889        1.07978611       -1.50151345
 C            2.25520449       -0.32176407       -1.87079117
 C            1.56790816        1.83574279       -2.49876443
 C            0.70524795        3.23456489       -0.68261748
 C            0.79219867        2.91252229       -2.09745524
 C           -1.40104378        2.88464832        0.58697051
 C           -0.66124525        3.64141567       -0.40719083
 C           -2.63449213        0.80883356        0.13103469
 C           -2.46442006        2.17525148       -0.10312581
 C           -3.00823998       -1.41667810       -0.83363511
 C           -3.12050562        0.02020082       -0.91115871
 C           -1.15286229       -2.61670370       -1.59272876
 C            0.12041658       -2.15501014       -1.92414999
 C           -2.31492859       -1.86774215       -2.03356577
 C            1.44125138       -0.44360747       -3.06234024
 C            1.02242410        0.88936346       -3.46025562
 C            0.26734868       -1.28885490       -3.00498221
 C           -2.83437697        0.39629600       -2.28854026
 C           -2.12324279       -0.71612797       -2.89635781
 C           -0.41288327        0.85853182       -3.69834811
 C           -0.87211721       -0.50162851       -3.46218727
 C           -0.53224145        3.08130216       -2.67741532
 C           -1.41033218        3.60644636       -1.64827142
 C           -2.50060172        2.66345255       -1.47406379
 C           -1.19082176        1.93506915       -3.28325216
 C           -2.43254568        1.69789070       -2.55509617
