56
Modified xyz file
 C            1.22106075       -0.03841595        3.93903423
 C            2.48271263       -0.34665799        3.30065942
 C            2.31849406       -1.61905945        2.60715204
 C            0.38719428       -1.22300589        3.83085763
 C            0.92905420       -2.01353150        2.74652481
 C           -0.97900744       -0.76675036        3.73132038
 C            0.43019761        1.06743956        3.42580944
 C           -0.94497975        0.68812440        3.64686317
 C            0.78894050        1.66964572        2.21553954
 C            3.00682363        0.60208592        2.34162638
 C            2.12431004        1.63498078        1.81869382
 C            2.86450999       -1.46649465        1.26906318
 C            3.48672027       -0.16333399        1.20643231
 C            2.10340089       -1.86844817        0.17646240
 C            0.17867626       -2.21026907        1.58812765
 C            0.85493820       -2.46028358        0.39610809
 C           -1.78745676       -1.22450438        2.61824766
 C           -1.19353696       -1.90584931        1.55452536
 C           -1.92672123        1.07407960        2.66321309
 C           -2.67567917       -0.12312663        2.31958140
 C           -0.19951486        2.05137551        1.29030408
 C           -1.56186054        1.93459038        1.63460601
 C            0.18096479        2.47330067       -0.00089039
 C            2.45200699        1.78817981        0.41764434
 C            3.24722357        0.63233661        0.02194600
 C            1.48228307        2.24663995       -0.46570986
 C            2.38791209       -1.31893132       -1.07862524
 C            2.89658169       -0.01098286       -1.15924203
 C            1.83643651       -1.93070665       -2.20467908
 C            0.12541167       -2.92333819       -0.68781025
 C            0.68863179       -2.79776897       -2.02114608
 C           -1.88685707       -1.97350303        0.33742173
 C           -1.28043202       -2.57606541       -0.76318075
 C           -3.35272608       -0.13256301        1.11160691
 C           -2.96254105       -1.10977253        0.10358671
 C           -2.54469031        2.18414679        0.68325039
 C           -3.52402904        1.13993540        0.43095233
 C           -0.78308667        2.88669192       -0.91833004
 C           -2.18492017        2.75867816       -0.58968656
 C           -0.65107488        2.48481773       -2.30610102
 C            1.69219804        1.99395945       -1.82419382
 C            2.46989332        0.82170449       -2.18708260
 C            0.59764252        2.11353185       -2.77408755
 C            1.59500920       -1.15588787       -3.40823463
 C            1.90455567        0.25604620       -3.39320830
 C            0.68191701        0.98440353       -3.68833453
 C           -0.36650469       -2.33021741       -2.90667642
 C           -1.51225519       -2.01026841       -2.08275877
 C            0.18676144       -1.29704327       -3.74847436
 C           -0.40933246        0.02420220       -3.70955440
 C           -3.08672857       -0.47645003       -1.20319431
 C           -3.53867244        0.88459174       -0.99685973
 C           -2.81158191        1.95494772       -1.63354193
 C           -1.77744283        1.61117582       -2.58396546
 C           -2.13080460       -0.76462669       -2.17638360
 C           -1.53002597        0.27624466       -2.91520878
