56
Modified xyz file
 C            1.54460092       -0.23225986        4.13347315
 C            0.69029377       -1.40257230        4.13299031
 C            1.12818059       -2.26819586        3.05086889
 C            2.51422187       -0.39554445        3.06421373
 C            2.16555304       -1.58325703        2.31394314
 C            2.56478097        0.85633626        2.34222366
 C            0.72139782        0.91521743        3.79039694
 C            1.43119365        1.66090765        2.78033371
 C           -0.65602393       -0.96373592        3.80891999
 C           -0.60373281        0.44077606        3.46288714
 C           -0.05108878       -2.67042823        2.32448194
 C           -1.17134653       -1.87568525        2.81202408
 C            0.03488108       -2.85936472        0.95065836
 C            2.03658496       -1.46447784        0.93242149
 C            1.07905642       -2.23064164        0.24283600
 C            2.82548199        0.82824292        0.97555725
 C            2.65153684       -0.38363902        0.29059252
 C            2.58415791        2.01734290        0.29393421
 C            0.70677979        2.31688459        1.79269259
 C            1.47371633        2.83026158        0.75667857
 C           -1.17479057        0.83408419        2.25518249
 C           -0.60472230        1.88370300        1.51173132
 C           -2.05951231       -1.38860402        1.85782880
 C           -2.12481440       -0.00164323        1.65740826
 C           -1.18427534       -3.04197882        0.31395691
 C           -2.29560755       -2.22847191        0.77353134
 C           -1.22927378       -3.09712584       -1.12515123
 C            1.04196360       -2.16907519       -1.16159158
 C           -0.08722561       -2.60561812       -1.85870539
 C            2.75408355       -0.40754153       -1.09543085
 C            1.97218818       -1.38057514       -1.83677208
 C            2.57888145        2.03548230       -1.15605040
 C            2.73935964        0.84161844       -1.84283789
 C            0.81845931        3.39764726       -0.39433235
 C            1.54957524        2.97392546       -1.57884931
 C           -1.26118178        2.32942905        0.35069869
 C           -0.57735239        3.09175509       -0.59947001
 C           -2.88542685        0.50362997        0.60940889
 C           -2.47319993        1.74706312       -0.01641668
 C           -2.99768929       -1.72916018       -0.39292815
 C           -2.39942233       -2.35225975       -1.56455815
 C           -3.35615361       -0.39044485       -0.43856430
 C           -0.60023119       -1.81583118       -2.96922028
 C           -1.99940516       -1.52636748       -2.69274858
 C            1.59739343       -0.77369034       -3.10511808
 C            1.99130347        0.62317970       -3.06933152
 C            0.21043329       -0.83877259       -3.52864587
 C            0.57426129        2.56887937       -2.57866120
 C           -0.74759020        2.80177304       -2.01619410
 C            0.81166261        1.43009632       -3.34083958
 C           -0.28477590        0.52598276       -3.65168698
 C           -2.82264572        1.66996471       -1.42689244
 C           -3.28168676        0.32073634       -1.70358656
 C           -2.46665330       -0.21945000       -2.78075793
 C           -1.81762274        2.01444529       -2.41611007
 C           -1.57853194        0.83704750       -3.24042280
