56
Modified xyz file
 C            1.29863435        0.09558385        3.94092888
 C            2.43734034       -0.09817554        3.06844283
 C            2.42910946       -1.48543202        2.63274637
 C            0.46405399       -1.09094229        3.84914739
 C            1.19569325       -2.09651051        3.09509894
 C           -0.84503846       -0.67416604        3.36762742
 C            0.44716736        1.24319573        3.71592556
 C           -0.91058495        0.76084981        3.49739267
 C            0.74572318        2.14249114        2.61605666
 C            2.57897710        0.73837286        1.88516091
 C            1.69486342        1.78874682        1.64969346
 C            2.73148234       -1.50432027        1.21133648
 C            2.93961786       -0.12773103        0.78209771
 C            2.04019673       -2.37607724        0.37130269
 C            0.48494480       -2.89666739        2.21215487
 C            1.06089326       -3.21145049        0.91364796
 C           -1.36373309       -1.29228913        2.23374295
 C           -0.91139794       -2.58068966        1.96533614
 C           -1.93775094       -0.52405344        1.20002464
 C           -1.46414928        1.53145308        2.40592895
 C           -0.54506789        2.62978377        2.17345001
 C           -2.00672345        0.87926156        1.30071183
 C           -0.60675570        3.27118101        0.95269289
 C            1.53053497        2.25978154        0.34287966
 C            0.58965155        3.27182476        0.13631100
 C            2.57071983        0.23252277       -0.50746423
 C            1.98623498        1.48216216       -0.73844402
 C            2.05151192       -2.11345693       -0.99885443
 C            2.41834660       -0.78176639       -1.45097493
 C            0.97758276       -2.59257430       -1.86044744
 C           -0.04358286       -3.66634992        0.08481159
 C           -1.27563242       -3.22418902        0.72602725
 C           -0.10466754       -3.26085988       -1.30650494
 C           -2.41433054       -1.15994304        0.04028974
 C           -2.02594450       -2.46799888       -0.24744357
 C           -1.45004854       -2.76587136       -1.54822185
 C           -2.92328010       -0.39693434       -1.00761523
 C           -2.26238956        1.64776038        0.16126383
 C           -1.68225996        2.91235201        0.04922883
 C           -2.81053918        1.04706835       -0.96484137
 C            0.16105117        3.61715051       -1.20475631
 C           -1.27859837        3.39785519       -1.25879963
 C            1.67139320        1.83443802       -2.05327587
 C            0.75912808        2.92722382       -2.32158807
 C            1.71605817       -0.52085042       -2.69631881
 C            0.75195991       -1.59301039       -2.89446495
 C            1.37484525        0.78586459       -3.01352171
 C           -1.67938007       -1.87706860       -2.58911154
 C           -2.65133328       -0.82068507       -2.37301763
 C           -0.54667626       -1.29359112       -3.29714758
 C           -2.43405943        1.51162063       -2.29692383
 C           -1.56541798        2.58791044       -2.42591851
 C           -0.31642868        2.40768224       -3.15161390
 C            0.06949988        1.07424613       -3.59082645
 C           -2.22557707        0.34148931       -3.13009229
 C           -0.89586769        0.07378227       -3.65327100
