56
Modified xyz file
 C            1.42258523        0.10075457        4.08212679
 C            0.60740819       -1.07691611        3.84295195
 C            1.42769467       -2.02678449        3.13192770
 C            2.57187778        0.01946140        3.19559281
 C            2.64134012       -1.33616513        2.70798194
 C            2.45955026        1.09740524        2.23220856
 C            0.64752196        1.26034025        3.68183405
 C            1.43922469        2.00759157        2.72635838
 C           -0.63248041       -0.64318067        3.22977858
 C           -0.66760173        0.80664410        3.26406897
 C           -1.11230459       -1.28070476        2.08921830
 C            0.87938789       -2.67001873        1.95359814
 C           -0.39511252       -2.33328805        1.49139952
 C            2.77016482       -1.55622591        1.28125818
 C            1.96150930       -2.72214891        0.99398408
 C            2.51734616        0.82961082        0.86105946
 C            2.72147154       -0.48114836        0.38954222
 C            2.09445082        1.82575605       -0.02240964
 C            0.75691375        2.78189700        1.80352321
 C            1.25406843        2.83873993        0.44202150
 C           -1.29013669        1.47205612        2.21105911
 C           -0.68704218        2.62605408        1.70094861
 C           -2.10635539       -0.63558900        1.35824132
 C           -2.18646032        0.76634659        1.40399298
 C           -2.74597797       -1.35691790        0.35700031
 C           -0.75342171       -2.76187609        0.20608977
 C           -1.99712948       -2.39954516       -0.31414944
 C            1.63900014       -2.97324053       -0.32495314
 C            0.24610532       -3.21914319       -0.65759707
 C            2.52055253       -0.76990080       -0.96605354
 C            2.14053552       -2.06194716       -1.33821185
 C            2.21687068        1.62265301       -1.39132002
 C            2.39434444        0.27139305       -1.88377994
 C            1.31040718        2.31225491       -2.29590960
 C            0.14810745        3.29520192       -0.38701204
 C           -1.07423986        3.12260449        0.38746950
 C            0.15802989        3.00285708       -1.74459460
 C           -2.86739601        1.47136381        0.41136337
 C           -2.20885461        2.60019424       -0.21847052
 C           -3.55296062       -0.67798522       -0.63622655
 C           -3.59823574        0.76596074       -0.62119402
 C           -2.15877732       -2.19908071       -1.75144263
 C           -3.07551861       -1.09286847       -1.94426704
 C            0.12065919       -2.98404772       -2.08510302
 C            1.30354191       -2.25088799       -2.50994021
 C           -1.04642709       -2.28080856       -2.57418234
 C            1.54831656        0.10877856       -3.06254383
 C            0.83120431        1.34909475       -3.27160020
 C            0.86957737       -1.08495274       -3.25134223
 C           -0.58918673       -1.08332312       -3.26984108
 C           -1.03358199        2.45345046       -2.37518206
 C           -2.21860542        2.36358637       -1.65469383
 C           -3.10673031        1.24179049       -1.90597331
 C           -2.59978042        0.09224039       -2.63545249
 C           -0.61962122        1.33580263       -3.21281858
 C           -1.29582918        0.11681089       -3.13033448
