56
Modified xyz file
 C            1.15819670        0.12128464        3.97922923
 C            2.33131514        0.00183057        3.13668473
 C            2.39760274       -1.37892305        2.71101489
 C            0.32716851       -1.05261342        3.73837238
 C            1.07084290       -1.94350811        2.88112392
 C           -0.96701864       -0.58981161        3.29154765
 C            0.31624588        1.28490243        3.81206682
 C           -1.04886300        0.81309365        3.65554527
 C            0.56943438        2.17191280        2.69367537
 C            2.42630936        0.82088487        1.93793186
 C            1.45906209        1.78657875        1.68375751
 C            2.96222373       -1.39764077        1.37457601
 C            2.85752314       -0.04035165        0.85054780
 C            2.57472402       -2.43888126        0.54792128
 C            0.46096042       -2.48648318        1.75689468
 C            1.32034124       -3.11118960        0.86086235
 C           -1.44998750       -0.99083026        2.04576367
 C           -0.72415075       -1.90491782        1.26252990
 C           -2.45664112       -0.22611693        1.45606193
 C           -1.71665016        1.72537072        2.74374418
 C           -0.72626431        2.70944538        2.32227518
 C           -2.57587434        1.18813920        1.79374363
 C           -0.84904861        3.29839863        1.07425490
 C            1.19089914        2.15491380        0.36463356
 C            0.26870878        3.17732713        0.15769237
 C            2.33045022        0.15693003       -0.42792771
 C            1.54193645        1.28992073       -0.68972077
 C            2.54671428       -2.20511620       -0.87844054
 C            2.36402350       -0.90094165       -1.34372191
 C            0.78672301       -3.63193438       -0.37632753
 C            1.73145912       -3.27659282       -1.42099153
 C           -1.11630227       -2.13940524       -0.06853666
 C           -0.50764579       -3.15454464       -0.80156227
 C           -2.73958127       -0.37198282        0.04054205
 C           -1.96555525       -1.23788692       -0.72061919
 C           -2.81289282        1.92107564        0.56140615
 C           -2.04453190        3.05015777        0.28807507
 C           -3.07791777        0.94074965       -0.48458851
 C           -0.24727921        3.42262087       -1.16746518
 C           -1.70291322        3.37171630       -1.08532233
 C            1.08857836        1.53426821       -1.99890322
 C            0.16427026        2.55017117       -2.24175171
 C            1.89692765       -0.70162974       -2.63916134
 C            1.18994269        0.52451084       -2.95716938
 C            0.96589003       -3.02273080       -2.62065560
 C           -0.44347352       -3.03357449       -2.24341664
 C            1.21210874       -1.78466021       -3.33048893
 C           -1.87532159       -1.04331251       -2.10720074
 C            0.00453787        0.16784100       -3.73479386
 C           -1.07152996       -1.88803141       -2.86922569
 C           -0.08084962       -1.27707192       -3.73595416
 C           -2.78581597        1.23414546       -1.81064056
 C           -2.17141553        2.50646579       -2.14947586
 C           -1.02913847        2.22402585       -2.99843572
 C           -2.16477475        0.21525515       -2.64101874
 C           -1.16368300        0.86674640       -3.47895805
