56
Modified xyz file
C          1.08603        0.07451        3.90556
C          2.25133       -0.26085        3.30280
C          2.23351       -1.67200        2.96420
C          0.21298       -1.06516        3.80178
C          0.79930       -1.94973        2.91678
C         -1.04838       -0.61899        3.65477
C          0.33252        1.17168        3.52858
C         -1.08278        0.82164        3.78143
C          0.69087        1.82384        2.30046
C          2.73481        0.43907        2.21773
C          1.92064        1.44981        1.60942
C          3.01449       -1.83000        1.78250
C          3.50710       -0.50316        1.42376
C          2.41645       -2.40474        0.58095
C          0.10991       -2.24838        1.68438
C          0.89011       -2.50954        0.49436
C         -1.83733       -1.02395        2.61300
C         -1.27145       -1.82357        1.54894
C         -2.12494        1.28798        2.88322
C         -2.79098        0.06051        2.34943
C         -0.36474        2.34696        1.51418
C         -1.67881        2.18693        1.79424
C         -0.22087        2.61506        0.16877
C          2.03255        1.66061        0.17242
C          0.95183        2.31571       -0.52902
C          3.53994       -0.38969        0.00385
C          3.09155       -1.71193       -0.52069
C          2.89503        0.79258       -0.62499
C          2.54626       -1.77569       -1.85985
C          0.27438       -2.42575       -0.80468
C          1.16549       -2.25532       -2.03267
C         -1.88980       -1.77162        0.26065
C         -1.11914       -2.09678       -0.92478
C         -3.44032        0.08759        1.04420
C         -3.07371       -0.96530        0.08677
C         -2.39621        2.25768        0.52546
C         -1.46862        2.57369       -0.45362
C         -3.38952        1.31933        0.20437
C         -1.60063        2.19955       -1.81818
C          0.82045        2.13576       -1.92222
C         -0.41462        2.06255       -2.57241
C          2.66230        0.67667       -2.01185
C          2.73317       -0.61497       -2.73448
C          1.71012        1.41127       -2.63476
C          0.65405       -1.59891       -3.25238
C         -0.27162        1.15527       -3.75470
C          1.63339       -0.58979       -3.70116
C          1.14908        0.79393       -3.78847
C         -1.61898       -1.64152       -2.19559
C         -0.77025       -1.28789       -3.32933
C         -1.25849        0.05142       -3.80562
C         -3.40814       -0.50069       -1.15693
C         -3.51673        0.92583       -1.11887
C         -2.73026        1.41109       -2.17858
C         -2.73703       -0.85282       -2.26570
C         -2.53529        0.28022       -3.12738

