56
Modified xyz file
 C            1.61285816        0.12422413        4.13977550
 C            0.81591182       -1.09072198        4.12200469
 C            1.49174296       -2.04499884        3.26277408
 C            2.61950781        0.00514917        3.09913926
 C            2.61687768       -1.36400345        2.63901478
 C            2.38477502        1.05632131        2.12708510
 C            0.74112888        1.22965769        3.78458200
 C            1.28171775        1.87176991        2.59790137
 C           -0.55720523       -0.72073355        3.82022797
 C           -0.61997131        0.73194993        3.73512051
 C           -1.29472732       -1.49633453        2.92947683
 C            0.73677644       -2.70190255        2.20898237
 C           -0.64036169       -2.54139109        2.14915522
 C            2.53739775       -1.60560821        1.21256927
 C            1.50752209       -2.59593827        0.98140304
 C            2.44545449        0.77434683        0.76643955
 C            2.62208337       -0.54534644        0.31611804
 C            1.90130456        1.71312030       -0.10992833
 C            0.39536272        2.38391463        1.65228759
 C            0.81444973        2.48597231        0.32104983
 C           -1.49224421        1.32877637        2.83450790
 C           -0.97352894        2.33958601        1.92606812
 C           -2.29845518       -0.86853256        2.08270988
 C           -2.42404122        0.51051564        2.07104903
 C           -1.29066011       -2.59740175        0.85419658
 C           -2.34423154       -1.59631894        0.82704031
 C            0.85027991       -2.56182898       -0.24611922
 C           -0.53348746       -2.78390237       -0.29727005
 C            2.34189457       -0.82473734       -1.02083433
 C            1.47448457       -1.89242101       -1.30557889
 C            2.15792422        1.55358952       -1.46773453
 C            2.48280345        0.22050032       -1.92818623
 C            1.28829875        2.16495089       -2.45764539
 C           -0.05860752        3.04942815       -0.61167755
 C            0.16164827        2.85341029       -2.03498417
 C           -1.92121826        2.43932445        0.83249199
 C           -2.67012532        1.18901795        0.80941412
 C           -1.49085316        2.97686266       -0.36885541
 C           -2.59488385       -0.93092368       -0.37420804
 C           -2.75688846        0.46325144       -0.38223784
 C           -1.19476409       -2.59583275       -1.50656351
 C           -2.25740230       -1.60080936       -1.55299975
 C            0.97140072       -2.07720451       -2.59213597
 C           -0.41434236       -2.47069095       -2.72142077
 C            2.00008584        0.08140207       -3.28641642
 C            1.18465214        1.24772248       -3.58467007
 C            1.23796415       -1.09783742       -3.62900132
 C           -2.13522348       -0.87578465       -2.80550873
 C           -1.07338725       -1.49825240       -3.57787476
 C           -0.12529784        0.77746470       -4.00743643
 C           -0.04322420       -0.66352548       -4.16652105
 C           -1.12350079        2.55177676       -2.64522555
 C           -2.11530620        2.49901463       -1.58688894
 C           -2.69878080        1.16861720       -1.58565962
 C           -1.26387259        1.34691841       -3.44552906
 C           -2.26971513        0.50442691       -2.80347299
