56
Modified xyz file
 C            1.10669686       -0.06573873        3.94620607
 C            2.32274662       -0.28337924        3.18510658
 C            2.20637237       -1.58315718        2.54324746
 C            0.26270739       -1.23661648        3.76120051
 C            0.83475224       -2.01580166        2.68188682
 C           -1.10096720       -0.78090503        3.63554373
 C            0.29496624        1.10653575        3.66886534
 C           -1.09040220        0.67608203        3.64156021
 C            0.72745030        2.04457985        2.73806941
 C            2.70451238        0.67787996        2.16457925
 C            1.98334982        1.85274725        2.01878685
 C            2.73897776       -1.46244306        1.20397084
 C            3.08905477       -0.06727358        0.97922920
 C            2.11597001       -2.14198903        0.16573990
 C            0.10232394       -2.24519958        1.51732144
 C            0.79058442       -2.57772349        0.34562053
 C           -1.86767036       -1.19230735        2.47698575
 C           -1.26630501       -1.93017578        1.45460829
 C           -1.95329448        1.11682544        2.55518333
 C           -2.68815323       -0.05508232        2.11647609
 C           -0.22806499        2.62159990        1.80384377
 C           -1.46341360        2.00564942        1.59761386
 C            1.81907340        2.41848074        0.69199414
 C            0.53394956        3.10363630        0.66775339
 C            2.88203832        0.46939673       -0.29516323
 C            2.24630354        1.71263277       -0.43552004
 C            2.55817037       -1.81269121       -1.10976996
 C            2.89978975       -0.42449650       -1.36966294
 C            1.87860936       -2.34096880       -2.27149036
 C            0.05647248       -3.06019271       -0.73510305
 C            0.61676971       -3.01688890       -2.07383323
 C           -1.94201705       -2.02640501        0.23222647
 C           -1.34589714       -2.70228796       -0.83255747
 C           -3.25537479       -0.04134627        0.85687536
 C           -3.02886794       -1.18271496       -0.01292470
 C           -2.05586201        2.03737480        0.32937868
 C           -3.08533659        1.14272356        0.03393900
 C           -0.10963118        3.28075159       -0.54523706
 C           -1.45819692        2.76106206       -0.70694186
 C            1.78972027        2.12530138       -1.68754846
 C            0.62509853        2.99229968       -1.76302977
 C            2.31258955       -0.05835032       -2.64806170
 C            1.65974411       -1.23706374       -3.19281531
 C            1.68152506        1.16686757       -2.77140439
 C           -0.36142414       -2.38581340       -2.94272633
 C           -1.60168967       -2.27057612       -2.20401388
 C            0.23815993       -1.17917201       -3.48528683
 C           -3.28599936       -0.72652711       -1.36674232
 C           -3.29782909        0.72801574       -1.34211550
 C           -2.39322837       -1.15378983       -2.42336845
 C           -1.59881244        2.31050230       -2.08723663
 C           -0.30133944        2.41382303       -2.72243444
 C            0.31121547        1.21411231       -3.26358958
 C           -0.43307205        0.03605052       -3.35280351
 C           -2.38696563        1.20361615       -2.36410321
 C           -1.78987965        0.03853051       -3.00832808
