56
Modified xyz file
 C            1.17784403        0.00880177        4.01223709
 C            2.40465042       -0.21676134        3.28334514
 C            2.39324592       -1.60308587        2.84348984
 C            0.41980345       -1.23431337        3.97311175
 C            1.01806898       -2.05129176        2.93634396
 C           -0.97585421       -0.87921335        3.85798571
 C            0.28174178        1.05426887        3.56028237
 C           -1.05074505        0.57330760        3.86652575
 C            0.50644308        1.68762822        2.33317129
 C            2.67035045        0.58872003        2.11012221
 C            1.69412423        1.45196962        1.61772305
 C            3.04473689       -1.64632336        1.55146050
 C            3.34928805       -0.27572815        1.16785996
 C            2.33373550       -2.24269408        0.43901332
 C            0.31207236       -2.31537738        1.75768937
 C            1.02559661       -2.69580988        0.61007642
 C           -1.70944053       -1.32577888        2.69255081
 C           -1.04177854       -1.95229481        1.64262136
 C           -2.13678679        0.94987973        2.98655784
 C           -2.64186439       -0.26689745        2.36786128
 C           -0.56319451        2.34112782        1.70094152
 C           -1.86339300        1.88191755        1.91172572
 C           -0.32853847        3.03399314        0.51715076
 C            1.77649838        1.84788090        0.28388270
 C            0.95857892        2.88724725       -0.13242393
 C            3.03216331       -0.13691783       -0.24392071
 C            2.63820268       -1.44222997       -0.73497013
 C            2.29828784        0.96037079       -0.66813553
 C            1.76249480       -1.51459634       -1.81404106
 C            0.32321643       -3.02992712       -0.54384470
 C            0.85690085       -2.57558081       -1.81681595
 C           -1.64264884       -1.95053295        0.38501815
 C           -1.10294246       -2.77651931       -0.58916830
 C           -2.88777890        0.02616695        0.96551557
 C           -2.63287505        1.43812819        0.76166155
 C           -2.43211359       -0.85772459       -0.00074782
 C           -1.32723308        2.93633136       -0.53394288
 C           -2.22492203        1.86927279       -0.49698000
 C            0.76046928        3.10805488       -1.55543970
 C           -0.66736660        3.28474241       -1.77567041
 C            1.73227837        0.90945338       -1.94079516
 C            1.44709037       -0.34123300       -2.51733700
 C            1.20748129        2.08375992       -2.47579702
 C            0.62471909       -0.42954134       -3.64574093
 C           -0.24058136       -2.58829997       -2.76236570
 C           -1.46787895       -2.56544814       -1.98030524
 C           -0.32444930       -1.52105034       -3.73685164
 C           -2.38460546       -0.40910510       -1.31950076
 C           -2.26568409        0.96906553       -1.57348502
 C           -2.16835193       -1.34671064       -2.32685746
 C           -1.64654460       -0.92806008       -3.61070463
 C           -1.01805244        2.55082762       -2.97318739
 C            0.21775528        2.02403354       -3.53064833
 C           -0.09211426        0.73945230       -4.11463549
 C           -1.92455720        1.42658490       -2.85088050
 C           -1.50554302        0.48606015       -3.87073164
