56
Modified xyz file
 C            1.47320757       -0.13343131        4.22996180
 C            0.61520365       -1.29988163        4.22741852
 C            1.15549581       -2.23627334        3.25889380
 C            2.50455021       -0.34067018        3.22580225
 C            2.20562248       -1.56132445        2.51470487
 C            2.59094191        0.87170951        2.45809595
 C            0.67578571        0.99820529        3.78985087
 C            1.47920658        1.72711364        2.84408771
 C           -0.68635448       -0.88730858        3.73155230
 C           -0.59848668        0.50191140        3.32600976
 C            0.03477201       -2.76119853        2.51187022
 C           -1.08553176       -1.85671471        2.73613034
 C            0.27196264       -3.15997005        1.20575962
 C            2.12891032       -1.54184618        1.11733373
 C            1.39740212       -2.55665798        0.49537530
 C            2.85749671        0.78986441        1.09837772
 C            2.43110631       -0.36299838        0.40321930
 C            2.79811204        2.01245365        0.44451036
 C            0.84777940        2.39859514        1.80787098
 C            1.72343812        2.90119223        0.85784380
 C           -1.01723571        0.84946529        2.04102322
 C           -0.40520788        1.91925015        1.36790119
 C           -1.78523383       -1.41611108        1.62078138
 C           -1.81566355       -0.04435563        1.32207626
 C           -0.84668865       -3.14515463        0.28270163
 C           -1.93208778       -2.31999291        0.57567943
 C            1.00388769       -2.41419662       -0.89587811
 C           -0.26928202       -3.09526857       -1.04818999
 C            2.08101562       -0.27191419       -0.96232751
 C            1.20010593       -1.19409701       -1.52616308
 C            2.85769832        2.03853868       -0.99342402
 C            2.40425835        0.86264510       -1.69839592
 C            1.18535938        3.52804260       -0.31777411
 C            2.05310796        3.16609442       -1.42659442
 C           -0.88272918        2.27525945        0.09303403
 C           -0.16999770        3.19343721       -0.69019270
 C           -2.38619121        0.36609427        0.11677952
 C           -1.91163320        1.53287722       -0.50657299
 C           -2.79292555       -1.97854183       -0.45427977
 C           -3.13253358       -0.57535883       -0.60004281
 C           -1.09674295       -2.73653352       -2.09861673
 C           -2.48871751       -2.47845056       -1.78155192
 C            0.37670066       -0.82355617       -2.60005230
 C           -0.66929780       -1.66803938       -2.98723828
 C            1.49590238        1.30199662       -2.74594684
 C            1.19851112        2.70402765       -2.49809088
 C           -0.16420403        3.04596982       -2.13640768
 C            0.43115486        0.48221477       -3.10778501
 C           -2.21783615        1.79613622       -1.84702929
 C           -1.16388215        2.28709899       -2.70728071
 C           -0.75751827        1.12247621       -3.46954429
 C           -3.45364167       -0.35653557       -1.99590680
 C           -2.99692834       -1.51883634       -2.74148006
 C           -1.87545337       -1.09110814       -3.55752254
 C           -2.91244269        0.80711456       -2.64961639
 C           -1.96424814        0.34654181       -3.66074069
