56
Modified xyz file
 C            1.61269945       -0.24058212        4.61362529
 C            0.71223771       -1.36447707        4.81420733
 C            1.15299068       -2.44481528        3.95143710
 C            2.52388891       -0.58480728        3.53550519
 C            2.26865204       -1.95512553        3.15835999
 C            2.40635076        0.43500630        2.50793217
 C            0.81693765        0.88932230        4.16611410
 C            1.40366377        1.39412585        2.93339277
 C           -0.60767115       -0.95564362        4.36629489
 C           -0.57559114        0.48049211        4.14669590
 C            0.07004736       -2.75208532        3.03027575
 C           -1.00763920       -1.81835494        3.26036126
 C            1.95997353       -2.22078675        1.76963178
 C            0.63251831       -2.80061010        1.70298954
 C            2.41695547        0.07031448        1.16486293
 C            2.27336793       -1.27331757        0.79950969
 C            1.99105505        1.02518330        0.24399309
 C            0.55998327        1.93210353        1.96131504
 C            0.97445858        1.91230361        0.62620643
 C           -1.37661760        0.99183135        3.14029932
 C           -0.80641092        1.96192929        2.21827201
 C           -1.62841817       -1.23472960        2.15582212
 C           -2.11315714        0.05694086        2.30797490
 C           -0.15375635       -2.40972054        0.62740442
 C           -1.33686142       -1.69659639        0.85798969
 C            1.76211900       -1.51142822       -0.47021856
 C            0.51961403       -2.14816125       -0.55563695
 C            2.14826936        0.73678790       -1.11001541
 C            2.09353423       -0.61299124       -1.47648087
 C            1.76177201        1.72156858       -2.01527544
 C            0.13080347        2.44688836       -0.35879849
 C            0.63149239        2.55551866       -1.65695122
 C           -1.71993600        2.01533227        1.09467097
 C           -2.50553267        0.79041020        1.13222206
 C           -1.25539530        2.43038020       -0.14881400
 C           -1.95773183       -1.08496245       -0.24939772
 C           -2.67102129        0.11298997       -0.06248680
 C           -0.23452640       -1.95929780       -1.70454080
 C           -1.52198624       -1.42732514       -1.54622316
 C            1.70649998       -0.96916887       -2.76359341
 C            0.47969164       -1.73012492       -2.87874035
 C            1.66788395        1.41161947       -3.42977448
 C            1.71640239        0.02244552       -3.81772730
 C           -0.27673102        2.56546158       -2.79387626
 C            0.41978448        1.96992614       -3.92584327
 C           -2.10054018        2.15620901       -1.22421789
 C           -2.88658662        0.93343083       -1.15982667
 C           -1.62424807        2.30455154       -2.58401974
 C           -2.20531150       -0.90250243       -2.64935491
 C           -2.90766754        0.34555699       -2.47544205
 C           -2.32064757        1.30962824       -3.39019373
 C           -0.20548892       -1.30485671       -4.07862797
 C            0.58364885       -0.24556216       -4.68897418
 C           -0.23943462        0.95005989       -4.72617628
 C           -1.56374472       -0.83513465       -3.95319512
 C           -1.59464265        0.55484961       -4.39294271
