56
Modified xyz file
 C            1.63710498       -0.30275897        4.22022562
 C            0.72802622       -1.43239082        4.17636514
 C            1.17027029       -2.32319198        3.11607587
 C            2.66494802       -0.52194336        3.21728383
 C            2.39808272       -1.78636918        2.55994139
 C            2.74322843        0.67653119        2.40378484
 C            0.89240414        0.88437083        3.82984593
 C            1.63919079        1.54615950        2.78931978
 C           -0.57816837       -0.92818161        3.79746795
 C           -0.46612155        0.49469127        3.53518815
 C            0.04139405       -2.55267790        2.22660405
 C           -1.07468110       -1.76587676        2.72423597
 C            0.25489368       -2.60173422        0.84593292
 C            2.58655675       -1.86529293        1.18881412
 C            1.55560710       -2.47907730        0.36251392
 C            3.04554963        0.56564250        1.04666054
 C            3.08478967       -0.70273775        0.46124203
 C            2.76548679        1.66925524        0.24490424
 C            0.95394490        2.20193240        1.77483666
 C            1.73285084        2.58824112        0.69488685
 C           -1.07166279        0.97975416        2.37900484
 C           -0.41244998        1.92095492        1.56744130
 C           -1.90270092       -1.18391197        1.78063795
 C           -2.07665392        0.20128695        1.81310626
 C           -0.81742543       -2.32104261       -0.01095604
 C           -1.99566527       -1.81397017        0.54971103
 C           -0.59453575       -2.20008288       -1.39130373
 C            1.76705799       -2.00616685       -0.99009346
 C            2.68602717       -0.87592903       -0.92885083
 C            0.69744074       -1.94160311       -1.87080013
 C            2.60550068        1.51024835       -1.19173213
 C            2.44358850        0.23591906       -1.73305233
 C            1.10009350        3.15835333       -0.46700110
 C            1.74683336        2.59401000       -1.63972651
 C           -1.05628015        2.37044191        0.39595791
 C           -0.32493428        2.98552234       -0.61916601
 C           -2.87748057        0.78102304        0.84099967
 C           -2.32438905        1.88387945        0.07547535
 C           -3.04878873       -1.43430389       -0.26954801
 C           -3.57571247       -0.09594680       -0.08616604
 C           -1.69112050       -2.08221801       -2.24817597
 C           -2.96918021       -1.68872417       -1.69179081
 C           -1.55275087       -1.36652858       -3.50308965
 C            0.87164907       -1.14822006       -3.00126064
 C            1.66257136        0.06434093       -2.87931592
 C           -0.24967557       -0.85697718       -3.86826081
 C            0.71800365        2.30816268       -2.61652015
 C           -0.57125917        2.60793548       -2.00351021
 C            0.84548945        1.16276001       -3.38295327
 C           -0.35330766        0.59091062       -3.96519959
 C           -2.66852044        1.66755229       -1.32573600
 C           -3.59659631        0.55038873       -1.38399434
 C           -3.40206598       -0.48061865       -2.38207746
 C           -2.46147650       -0.23197468       -3.45231404
 C           -1.68357664        1.82210654       -2.30351281
 C           -1.64140429        0.96807659       -3.41235611
