56
Modified xyz file
 C            1.47786359       -0.00449891        4.08942033
 C            0.71051647       -1.20461055        3.80645311
 C            1.57662397       -2.10307702        3.08210512
 C            2.63062760       -0.01062884        3.20429541
 C            2.77446404       -1.35834336        2.70731148
 C            2.45423927        1.06634982        2.24580924
 C            0.65931247        1.13513683        3.72290366
 C            1.41872053        1.93481981        2.78260069
 C           -0.53591440       -0.79873203        3.18658711
 C           -0.64009308        0.64438672        3.29605420
 C           -0.95882972       -1.39810952        2.00361581
 C            1.07362684       -2.72713870        1.87275251
 C           -0.19460150       -2.40580366        1.38857112
 C            2.95612300       -1.55261108        1.28383047
 C            2.17950517       -2.72918948        0.93999847
 C            2.47157546        0.78809067        0.87322424
 C            2.92723983       -0.45848159        0.41570231
 C            1.84842436        1.68467302       -0.00921707
 C            0.70004806        2.71473935        1.89610160
 C            1.12875182        2.75959536        0.51381416
 C           -1.29558467        1.33607410        2.28074929
 C           -0.74319320        2.54394287        1.84912274
 C           -1.95728480       -0.75784528        1.27222024
 C           -2.12659123        0.62671695        1.40718350
 C           -2.53744219       -1.43998789        0.20925208
 C           -0.51346277       -2.79984098        0.08513562
 C           -1.77748963       -2.50460419       -0.41769983
 C            1.90585369       -2.95715072       -0.39786088
 C            0.51772266       -3.12340758       -0.80591087
 C            2.90195779       -0.73546622       -0.94683637
 C            2.52842036       -2.07673145       -1.37027028
 C            1.75971421        1.39612590       -1.37699551
 C            2.27895623        0.20199967       -1.86048181
 C            0.83610405        2.07257542       -2.17781854
 C            0.00894679        3.30082949       -0.23343578
 C           -1.18469356        3.11934053        0.59072135
 C           -0.05097660        3.06697374       -1.59845268
 C           -2.84874856        1.33965674        0.44909172
 C           -2.35231708        2.63565651        0.01594813
 C           -3.24389936       -0.71230280       -0.83123383
 C           -3.39857862        0.66011838       -0.71219180
 C           -1.95589942       -2.38961421       -1.85451427
 C           -2.83603976       -1.26412545       -2.11220479
 C            0.42941042       -2.71148264       -2.20189774
 C            1.63085815       -1.96256372       -2.50565767
 C            1.50497514       -0.55720371       -2.83425781
 C           -0.77970836       -2.24007753       -2.68824665
 C            0.07762512        1.31757081       -3.16411817
 C           -2.18514000       -0.39657819       -3.08018102
 C            0.27082216       -0.05817295       -3.24166478
 C           -0.83814067       -0.91420032       -3.29787990
 C           -1.34665605        2.94524341       -2.24614461
 C           -2.51990060        2.72404565       -1.42313821
 C           -3.16117383        1.50154622       -1.87617512
 C           -1.26632953        1.86240713       -3.21300746
 C           -2.39034007        0.97396547       -2.99308223
