56
Modified xyz file
 C            1.55642982       -0.11913759        4.37657052
 C            0.66884156       -1.26408503        4.33838957
 C            1.19312620       -2.17436608        3.34422516
 C            2.50624589       -0.24564348        3.27911024
 C            2.22761607       -1.48235495        2.59170824
 C            2.45532611        0.98031314        2.51959572
 C            0.75271958        1.05154701        4.09955084
 C            1.52741744        1.87815960        3.20235637
 C           -0.62877031       -0.81590572        3.85155705
 C           -0.55128880        0.60863705        3.63300619
 C            0.05752287       -2.66657419        2.59889051
 C           -0.98813990       -1.66097983        2.73487019
 C            0.31314713       -3.12365743        1.32369061
 C            2.13336589       -1.49783052        1.19927835
 C            1.49735978       -2.60400616        0.64927333
 C            2.43201950        0.92585866        1.12235898
 C            2.14177260       -0.28967994        0.47161023
 C            2.20171578        2.12771734        0.46088841
 C            0.82165417        2.76381183        2.41271634
 C            1.43286756        3.14132649        1.15935261
 C           -1.02978277        1.15086751        2.44099571
 C           -0.56294503        2.41725370        2.10190712
 C           -1.51155366       -1.08492044        1.57362152
 C           -1.52820397        0.31257506        1.42411236
 C           -0.74305925       -2.99678779        0.35235742
 C           -1.58809871       -1.89081031        0.43550023
 C            1.21427183       -2.63181269       -0.76891182
 C           -0.09134639       -3.26181155       -0.90587812
 C            1.77100260       -0.29291153       -0.89370986
 C            1.49417332       -1.50897098       -1.54124327
 C            1.75320680        2.12606143       -0.91737974
 C            1.54653745        0.91685494       -1.57236052
 C            0.36038288        3.54550365        0.28259111
 C           -0.86326971        2.95636076        0.79727883
 C            0.75517802        3.18070632       -1.05993905
 C           -1.88358866        0.86140485        0.17878606
 C           -1.63576142        2.22121758       -0.09035965
 C           -2.10622346       -1.37343356       -0.75111059
 C           -2.30629212        0.01011087       -0.85958098
 C           -0.80856048       -2.99999194       -2.05166550
 C           -1.98609411       -2.16186414       -1.90470240
 C            0.99632991       -1.50499607       -2.84637397
 C           -0.07218864       -2.44109741       -3.16196406
 C            0.80681568        0.92920519       -2.75943054
 C            0.66649621       -0.24623183       -3.48582093
 C           -0.26952642        2.96835168       -1.96335276
 C           -1.57941280        2.64312357       -1.41400126
 C           -0.05372437        2.00096267       -3.01255018
 C           -2.73292476        0.56184266       -2.07306115
 C           -2.28950084        1.89039411       -2.41968292
 C           -1.37889854        1.74470685       -3.54397469
 C           -2.25171337       -1.59815038       -3.21255760
 C           -1.04270266       -1.77375734       -4.00638704
 C           -0.52851761       -0.45286520       -4.29788196
 C           -2.62839241       -0.20814705       -3.29922117
 C           -1.64306148        0.45790657       -4.14304806
