56
Modified xyz file
 C            1.56380701       -0.17744100        4.19628842
 C            0.71038055       -1.34856666        4.21736744
 C            1.21336445       -2.26721070        3.21591331
 C            2.51577366       -0.33616077        3.10649989
 C            2.22324397       -1.57588564        2.42995952
 C            2.48462537        0.87526237        2.32950292
 C            0.72932489        0.96251194        3.86788095
 C            1.45043728        1.73806842        2.88526767
 C           -0.61760713       -0.94197224        3.78570409
 C           -0.57831950        0.47384452        3.48762150
 C            0.06330151       -2.79000371        2.51137162
 C           -1.02725763       -1.85022261        2.73550155
 C            0.26842656       -3.21775894        1.21243939
 C            2.09729136       -1.59205091        1.03829877
 C            1.41215729       -2.67125670        0.49042512
 C            2.57630864        0.80002712        0.94162256
 C            2.21412233       -0.39845528        0.29393750
 C            2.38188803        2.00529998        0.28106915
 C            0.72194214        2.48540386        1.97151795
 C            1.45844930        2.94689745        0.89000478
 C           -1.10127295        0.92482826        2.27999202
 C           -0.62035068        2.12777521        1.75508999
 C           -1.69738329       -1.34477627        1.62289648
 C           -1.80947231        0.04513911        1.44576861
 C           -0.84627978       -3.14374280        0.29246433
 C           -1.82964646       -2.18216211        0.51650298
 C            1.06705417       -2.66419244       -0.91295163
 C           -0.25993356       -3.25376987       -1.02722963
 C            1.82893271       -0.37792508       -1.06832572
 C            1.38011363       -1.55905545       -1.69123415
 C            2.13691259        2.01657063       -1.13933341
 C            1.87252400        0.82542705       -1.79787112
 C            0.79010908        3.67646977       -0.16194623
 C            1.29887399        3.17370838       -1.42572035
 C           -1.33018417        2.71209595        0.70944943
 C           -0.65249229        3.61625146       -0.20569182
 C           -2.42081403        0.54585062        0.28668051
 C           -2.22872756        1.88019918       -0.07237007
 C           -2.60091624       -1.75618128       -0.55515925
 C           -2.87650993       -0.33821674       -0.69050159
 C           -1.04061903       -2.92853591       -2.12506270
 C           -2.32395196       -2.28946098       -1.88209465
 C            0.83765204       -1.52179796       -2.97559139
 C           -0.40660725       -2.23129836       -3.22863808
 C            1.22208096        0.92352609       -3.02509041
 C            0.75883976       -0.27072399       -3.68741675
 C            0.17044257        3.01019879       -2.32536404
 C           -1.03863465        3.26212558       -1.56065497
 C           -2.04402776        2.21651852       -1.47882203
 C            0.18254466        1.92729058       -3.18944004
 C           -2.71439496        0.01457464       -2.09403489
 C           -2.47885636       -1.20964379       -2.84141426
 C           -1.36209714       -1.27244138       -3.75926982
 C           -0.63759585       -0.05359410       -4.04590772
 C           -2.03855426        1.19030558       -2.41934735
 C           -1.04841778        1.18833263       -3.41055440
