56
Modified xyz file
C          1.10171       -0.20146        4.00400
C          2.21717       -0.44914        3.24048
C          2.14983       -1.69495        2.72074
C          0.31158       -1.31371        3.93236
C          0.91025       -2.22463        3.05804
C         -0.97645       -0.88101        3.72675
C          0.30506        0.92172        3.76650
C         -1.00711        0.46985        3.69621
C          0.69741        1.80902        2.74074
C          2.59994        0.38676        2.21795
C          1.84070        1.53805        1.97771
C          2.65738       -1.72623        1.42781
C          2.99458       -0.37143        1.11445
C          2.05239       -2.52661        0.41121
C          0.14269       -2.70968        1.97684
C          0.69573       -2.88865        0.70755
C         -1.73065       -1.31871        2.66354
C         -1.16988       -2.25723        1.78926
C         -1.91363        0.92887        2.74871
C         -2.42154       -0.24292        2.10348
C         -0.23461        2.39430        1.88182
C         -1.63257        2.07654        1.94623
C          1.61987        1.98015        0.68755
C          0.38073        2.59670        0.63286
C          2.92858        0.12395       -0.22030
C          2.18581        1.36573       -0.45815
C          2.36346       -2.21255       -0.99291
C          2.99702       -0.90482       -1.29091
C          1.36524       -2.45673       -2.05787
C         -0.31241       -2.66995       -0.24919
C         -1.42049       -2.19391        0.43208
C         -0.07138       -2.37308       -1.59591
C         -2.83604       -0.22316        0.73999
C         -2.29572       -1.24790       -0.15907
C         -2.41334        2.26603        0.71277
C         -3.19190        1.11374        0.19657
C         -0.31392        2.78616       -0.56774
C         -1.81394        2.93778       -0.46183
C          1.58888        1.63435       -1.74804
C          0.30058        2.33992       -1.79542
C          2.60471       -0.56923       -2.62437
C          1.76092       -1.61320       -3.17257
C          1.93788        0.69584       -2.88768
C          0.75848       -0.94371       -3.94198
C          1.04461        0.48103       -3.85136
C         -1.03034       -1.55757       -2.30250
C         -2.18143       -0.99910       -1.57940
C         -0.64287       -0.97433       -3.49196
C         -3.28886        1.30270       -1.21747
C         -2.61150        2.52509       -1.60387
C         -2.82995        0.26053       -2.12173
C         -0.49760        2.19701       -2.91237
C         -0.15879        1.24187       -3.96318
C         -1.25114        0.26969       -3.95426
C         -1.96775        2.24014       -2.84866
C         -2.29737        0.86203       -3.18349

