56
Modified xyz file
C          1.42273        0.08972        4.21197
C          0.64113       -1.14190        4.26215
C          1.53676       -2.22279        3.82751
C          2.37708       -0.20839        3.18415
C          2.48046       -1.52658        2.98738
C          2.31593        0.66314        2.13701
C          0.67437        1.20206        3.68032
C          1.51765        1.80751        2.59999
C         -0.53945       -0.86643        3.37682
C         -0.55739        0.57840        3.11492
C         -1.10969       -1.74618        2.49953
C          1.03169       -3.26564        2.97015
C         -0.27516       -2.99770        2.31529
C          2.57325       -2.07683        1.74086
C          1.97027       -3.40924        1.84170
C          2.40352        0.21650        0.77339
C          2.49531       -1.23500        0.57100
C          2.01876        1.06144       -0.24291
C          0.85930        2.66399        1.58364
C          1.27947        2.32553        0.14362
C         -1.18398        1.15486        2.08092
C         -0.71524        2.58658        1.77234
C         -2.03898       -1.23472        1.32430
C         -1.98132        0.30317        1.11512
C         -1.72061       -1.89541       -0.02198
C         -0.13979       -3.41328        1.07462
C          1.20334       -3.80911        0.71448
C         -0.80418       -2.88599       -0.05940
C          2.03018       -1.78528       -0.61127
C          1.40964       -3.19686       -0.60232
C          0.05168       -3.18418       -1.20220
C          2.02168        0.60430       -1.72724
C          1.64442       -0.88141       -1.75287
C          1.10272        1.49213       -2.66191
C          0.65684        3.04621       -0.79819
C          0.58918        2.67886       -2.21838
C         -1.38094        3.17512        0.58473
C         -0.53525        3.86845       -0.43943
C         -2.37328        0.88586       -0.06880
C         -2.23445        2.30657       -0.23888
C         -2.11274       -1.22374       -1.31199
C         -2.52652        0.09744       -1.29809
C         -0.20553       -2.42315       -2.38181
C          0.68947       -1.29488       -2.61286
C         -1.54760       -1.83146       -2.61160
C          0.21576        0.83292       -3.69894
C          0.03348       -0.46139       -3.55117
C         -1.33260       -0.90168       -3.72546
C         -2.60804        0.80877       -2.55136
C         -1.08382        1.36550       -4.18465
C         -2.05507        0.31826       -3.81734
C         -0.57883        3.41242       -2.81091
C         -1.31289        3.91359       -1.65320
C         -2.30341        2.89347       -1.46794
C         -1.52641        2.59998       -3.58642
C         -2.46290        2.16649       -2.57838
