56
Modified xyz file
 C            1.52751619        0.09656858        3.88640472
 C            0.71335450       -1.09969938        3.76447982
 C            1.30534625       -1.93690809        2.73923182
 C            2.48089614        0.09874860        2.78940002
 C            2.37033250       -1.16776571        2.10769824
 C            2.27352066        1.30478724        2.02011333
 C            0.65687050        1.24075752        3.70172178
 C            1.28185732        2.10755409        2.72184863
 C           -0.66859051       -0.69298160        3.60403525
 C           -0.68118803        0.75013190        3.41705199
 C           -1.48800514       -1.47613387        2.80975908
 C            0.46970770       -2.70413089        1.92642450
 C           -0.91513959       -2.62155201        2.11279422
 C            0.98156804       -3.13579858        0.70023640
 C            2.47011660       -1.20865444        0.72402994
 C            2.10660414       -2.41092277        0.13494445
 C            2.20907521        1.22340877        0.62867539
 C            2.36613524       -0.01697433       -0.02113190
 C            1.68119514        2.31244036       -0.06926711
 C            0.44884702        2.91110305        1.96179036
 C            0.83396848        3.19853757        0.59557027
 C           -1.37231281        1.31466881        2.34247159
 C           -0.96844901        2.57761065        1.91525793
 C           -2.38019770       -0.81999142        1.87333795
 C           -2.10543658        0.48699020        1.47790086
 C           -1.81606072       -2.92803746        1.01467799
 C           -2.73052464       -1.80381632        0.87200836
 C            0.09180247       -3.48595076       -0.39929111
 C           -1.26346714       -3.22518364       -0.29206730
 C            2.02901837       -2.50678144       -1.30106854
 C            0.77069799       -3.15803517       -1.63793580
 C            2.31701864       -0.07132585       -1.42512810
 C            2.11405053       -1.28956472       -2.07437171
 C            1.68358506        2.30017017       -1.45897568
 C            2.09835424        1.09652145       -2.15110182
 C            0.55152246        2.86746210       -2.18318592
 C           -0.37097307        3.65133933       -0.07212526
 C           -1.49590119        3.11396089        0.67834971
 C           -0.55713025        3.29916095       -1.46496339
 C           -2.38213360        0.89156833        0.15829594
 C           -2.21963033        2.22694264       -0.20416601
 C           -1.80722039        2.55182557       -1.55830620
 C           -2.72920647       -1.40352311       -0.51623413
 C           -1.90546839       -2.34422961       -1.25889811
 C           -2.65072849       -0.05574772       -0.84176217
 C            0.09720114       -2.32133939       -2.61700454
 C            1.09704222       -1.38319171       -3.10838178
 C           -1.20832832       -1.88279160       -2.37848560
 C            1.34738350        1.02362132       -3.39626788
 C            0.34562198        2.07623175       -3.38031838
 C            0.68492241       -0.22228353       -3.74367160
 C           -1.96332120        1.59258465       -2.55013014
 C           -2.39041512        0.25507603       -2.17499560
 C           -1.64546915       -0.70258423       -2.97868373
 C           -0.95126971        1.46155789       -3.58703711
 C           -0.73856507        0.04456893       -3.83355392
