56
Modified xyz file
 C            1.50451624        0.12093020        3.84543102
 C            0.68994129       -1.07737491        3.75978455
 C            1.26510291       -1.93733624        2.74304622
 C            2.47082212        0.07969256        2.76054951
 C            2.34493202       -1.19771453        2.10112568
 C            2.29873743        1.27273716        1.96519492
 C            0.63623936        1.25897567        3.61026929
 C            1.26093839        2.07905583        2.59241516
 C           -0.69351821       -0.67224184        3.61239152
 C           -0.70611007        0.76059142        3.35992255
 C           -1.53154073       -1.48656263        2.87124881
 C            0.41421406       -2.70292825        1.94479299
 C           -0.96673500       -2.62768833        2.16005394
 C            0.90307517       -3.14821616        0.71412295
 C            2.45473971       -1.26588555        0.71792270
 C            2.04489872       -2.45842344        0.13717494
 C            2.31696224        1.17292125        0.57537738
 C            2.44663025       -0.08249429       -0.04831596
 C            1.84024837        2.25728691       -0.15844038
 C            0.43278239        2.82313788        1.76827391
 C            0.86549349        3.07774843        0.40842645
 C           -1.41668603        1.27187232        2.27073833
 C           -0.97893716        2.46790320        1.69457601
 C           -2.49972417       -0.87088759        1.98422961
 C           -2.32697745        0.45454664        1.58763958
 C           -1.88725649       -2.94948943        1.08205237
 C           -2.85411604       -1.86721705        0.98762225
 C           -0.00828398       -3.47480522       -0.37619130
 C           -1.35844456       -3.19358695       -0.24352339
 C            1.95242664       -2.56043469       -1.29807391
 C            0.65271588       -3.13136564       -1.62059177
 C            2.43481922       -0.15646388       -1.45311776
 C            2.10579551       -1.35749731       -2.08398661
 C            1.99425244        2.26017162       -1.53638413
 C            2.32139083        1.01406331       -2.20320926
 C            1.00461603        2.95661950       -2.34393454
 C           -0.32563884        3.40185690       -0.35844171
 C           -1.46160462        2.87354114        0.38314369
 C           -0.27704031        3.27492908       -1.74074405
 C           -2.86294852        0.86410590        0.36461647
 C           -2.40284477        2.09018279       -0.26523979
 C           -2.94511111       -1.46263840       -0.40307336
 C           -1.98414283       -2.24753690       -1.16098947
 C           -3.08428417       -0.11558506       -0.69129119
 C           -0.00483132       -2.21227726       -2.53212201
 C            1.04037149       -1.36721346       -3.07467810
 C           -1.22153730       -1.63973641       -2.16313741
 C            1.56076371        0.96685269       -3.44314852
 C            0.75366318        2.16864038       -3.53434963
 C            0.68474265       -0.16729713       -3.66266061
 C           -1.29357140        2.48871571       -2.42903204
 C           -2.27313019        1.83468533       -1.69251338
 C           -2.48373729        0.40988696       -1.90228920
 C           -1.52634800       -0.34036419       -2.58793358
 C           -0.64049948        1.76203908       -3.50392830
 C           -0.68023169        0.30757288       -3.49080141
