56
Modified xyz file
 C            1.47868743       -0.03555361        4.08514370
 C            0.70263952       -1.24556377        3.86625692
 C            1.52700988       -2.14702027        3.09965799
 C            2.58366132       -0.05438876        3.14319390
 C            2.72170843       -1.41655764        2.68789818
 C            2.34951354        0.98496404        2.15460534
 C            0.63091914        1.08810109        3.74036329
 C            1.25046747        1.80134607        2.63685565
 C           -0.58287360       -0.84950059        3.32318727
 C           -0.71313092        0.58097084        3.54453092
 C           -1.03654140       -1.38936856        2.11590053
 C            0.97171672       -2.75176343        1.90436887
 C           -0.28827620       -2.37152715        1.43932757
 C            2.88240552       -1.65094707        1.26897087
 C            2.06278770       -2.80692361        0.95605938
 C            2.41122063        0.67948911        0.79227999
 C            2.88218705       -0.57709471        0.37655144
 C            1.74314408        1.51744790       -0.11424847
 C            0.41630836        2.39432938        1.69999247
 C            0.85331131        2.48840293        0.38092920
 C           -1.54071641        1.29954891        2.69806357
 C           -0.95772248        2.39553998        1.94308815
 C           -2.09914491       -0.75334984        1.46534885
 C           -2.38610897        0.57653896        1.76430553
 C           -2.60836654       -1.29202260        0.29078640
 C           -0.63458255       -2.72276313        0.13103938
 C           -1.88425879       -2.36502152       -0.36046346
 C            1.76249396       -3.04454493       -0.37408044
 C            0.36276907       -3.12627416       -0.76477893
 C            2.86997304       -0.89242166       -0.97718492
 C            2.42808240       -2.22233798       -1.36858461
 C            1.85693231        1.28293687       -1.49411036
 C            2.31933325        0.04936434       -1.93009103
 C            1.07767684        2.00729139       -2.39130335
 C            0.08248953        3.24710089       -0.49575130
 C            0.31634507        3.13782697       -1.91603603
 C           -1.86522931        2.67536107        0.84478587
 C           -2.70799441        1.49426986        0.67963010
 C           -1.35627728        3.29960996       -0.28219775
 C           -3.11098408       -0.39658211       -0.74368840
 C           -2.95201158        0.98038572       -0.59549092
 C           -2.06703389       -2.21831445       -1.79459958
 C           -2.83445454       -1.00809675       -2.03013842
 C            0.28344634       -2.73285999       -2.16656594
 C            1.53446978       -2.08815460       -2.50497200
 C            1.51195092       -0.69165603       -2.88920237
 C           -0.89377965       -2.17980358       -2.64584076
 C            0.24961656        1.27130528       -3.33735243
 C           -2.14531677       -0.22573751       -3.03712259
 C            0.32188913       -0.11983650       -3.33190149
 C           -0.86237337       -0.87342341       -3.29909225
 C           -0.97558535        3.12318890       -2.58212164
 C           -1.99520436        3.03244710       -1.55326664
 C           -2.69580380        1.77083795       -1.72086281
 C           -1.04833876        1.91425934       -3.38233633
 C           -2.20304638        1.15654509       -2.94973612
