56
Modified xyz file
 C            1.55388225       -0.05246310        4.20064973
 C            0.71049288       -1.23302940        4.11006226
 C            1.47831110       -2.25724237        3.43501950
 C            2.64580890       -0.22929655        3.26135402
 C            2.65966546       -1.61961180        2.86693028
 C            2.50884497        0.77788728        2.22744237
 C            0.76585536        1.08191532        3.75149038
 C            1.40194743        1.64934569        2.57414889
 C           -0.56510081       -0.81583605        3.54684289
 C           -0.60512981        0.63673512        3.62726205
 C           -1.08480650       -1.45362709        2.41161423
 C            0.83804247       -3.01223996        2.37780989
 C           -0.47204546       -2.59976563        1.90204741
 C            2.68620074       -1.93465903        1.45177122
 C            1.72876826       -2.99496295        1.23058016
 C            2.65945462        0.43051004        0.89389198
 C            2.74279716       -0.91528213        0.50538111
 C            2.21715462        1.34783728       -0.05016075
 C            0.58577468        2.13516509        1.54729624
 C            1.03693414        2.05850791        0.22091006
 C           -1.40975912        1.31123359        2.72953606
 C           -0.78313862        2.23481670        1.79146710
 C           -2.01156236       -0.77512249        1.61355643
 C           -2.34247037        0.53751370        1.94275215
 C           -2.27267128       -1.23107488        0.31502794
 C           -0.47960100       -2.81626751        0.46707594
 C            0.90419066       -2.91948893        0.03704248
 C           -1.34679789       -2.06726118       -0.31535204
 C            2.39286400       -1.23179006       -0.80796188
 C            1.31516723       -2.10658401       -1.01618767
 C            2.59112413        1.11245024       -1.36428084
 C            2.67393181       -0.27582662       -1.77819625
 C            1.95066483        1.86167721       -2.42005666
 C            0.17905446        2.42936525       -0.83154528
 C            0.66515241        2.46573480       -2.13894129
 C           -1.70072885        2.37173454        0.67485738
 C           -2.79270874        1.42952946        0.89702575
 C           -1.19970236        2.53225741       -0.61346859
 C           -3.19313324       -0.53686939       -0.47257378
 C           -3.41803297        0.87738347       -0.20597335
 C           -3.14488765       -0.70864334       -1.91554617
 C           -0.98957771       -1.81441117       -1.64227633
 C            0.36489988       -1.79211991       -1.99160032
 C           -1.94080960       -1.27065702       -2.49976550
 C            2.02839001       -0.38477684       -3.06977090
 C            1.79195869        0.96474093       -3.55157010
 C            0.77788232       -1.11134393       -3.13410021
 C           -0.21981952        2.12810789       -3.24363479
 C           -1.51969854       -0.39012037       -3.57856730
 C            0.40889291        1.04174848       -3.97697053
 C           -0.16818058       -0.28960925       -3.87274391
 C           -2.08520321        2.36927980       -1.68110204
 C           -3.28633514        1.57935920       -1.46623748
 C           -3.37129044        0.59102758       -2.52361018
 C           -1.58208961        2.04210514       -3.00438243
 C           -2.27882700        0.84201387       -3.44426935
