56
Modified xyz file
 C            1.17688150        0.11116131        4.22681626
 C            2.38775650        0.11686941        3.42689961
 C            2.46366589       -1.17414617        2.77400699
 C            0.37528800       -1.03097849        3.80183746
 C            1.13841184       -1.76687066        2.82364928
 C           -0.92804840       -0.54223705        3.42632743
 C            0.32357492        1.28231249        4.21216612
 C           -1.01867792        0.83682369        3.88136495
 C            0.65308417        2.38103724        3.32129116
 C            2.56887543        1.13131750        2.39737645
 C            1.69627739        2.20932007        2.31970986
 C            3.05824724       -0.97143774        1.46826459
 C            2.96916068        0.45120795        1.17557777
 C            2.68709811       -1.85008413        0.46655992
 C            0.54747545       -2.14299888        1.61934886
 C            1.41543985       -2.54807043        0.61379028
 C           -1.45949785       -0.86876886        2.18014920
 C           -0.72225977       -1.64669706        1.26564692
 C           -2.48854358       -0.06422040        1.71196792
 C           -1.60790905        1.82089065        2.99046023
 C           -0.56543053        2.76759564        2.63033059
 C           -2.44347080        1.36492241        1.98390537
 C            1.14383070        2.58410851        1.02938185
 C           -0.24608231        2.95361981        1.22162126
 C            2.44506379        0.84995339       -0.05708231
 C            1.48049672        1.86586929       -0.11296982
 C            2.72567046       -1.38054260       -0.90260939
 C            2.58344643       -0.01485308       -1.14808636
 C            0.90382425       -2.79311229       -0.71377922
 C            1.91328080       -2.32086113       -1.64995045
 C           -1.20935271       -1.83610313       -0.04898293
 C           -0.43356789       -2.54455373       -0.98776060
 C           -2.94971188       -0.21831190        0.35263009
 C           -2.41353632       -1.22160793       -0.44396864
 C           -2.37927182        2.00514030        0.68441308
 C           -1.17208851        2.55959672        0.25910334
 C           -3.09272478        1.11875260       -0.21108311
 C            0.63490389        1.94829048       -1.21945801
 C           -0.71798103        2.26402061       -1.03074803
 C            2.10071653        0.39041089       -2.38981418
 C            1.07432714        1.41535654       -2.42654389
 C            1.51823322       -1.98258476       -2.93396699
 C            1.75647868       -0.62004518       -3.38054015
 C           -0.82073516       -2.61092961       -2.32482363
 C            0.17756119       -2.35341657       -3.35155509
 C           -2.78476429       -1.20160725       -1.78665153
 C           -2.04420264       -1.97817189       -2.75063471
 C           -2.89395185        1.26770780       -1.57177370
 C           -1.66004051        1.90917525       -2.00015432
 C           -3.06641500        0.08736064       -2.39436761
 C            0.11905762        1.06383028       -3.46313333
 C            0.57510072       -0.16653636       -4.09487419
 C           -0.33111693       -1.29591864       -4.20738690
 C           -1.72988830       -1.10826228       -3.87850834
 C           -1.23549613        1.27282962       -3.23723459
 C           -2.19846315        0.22444712       -3.54615479
