56
Modified xyz file
 C            1.42493767       -0.04221189        4.15625854
 C            0.62248769       -1.25286632        4.12442989
 C            1.42904538       -2.28721196        3.51437066
 C            2.54553082       -0.24031357        3.25392137
 C            2.58659685       -1.64261305        2.90680788
 C            2.42589975        0.73066711        2.18481976
 C            0.61655343        1.03984342        3.62049167
 C            1.31485731        1.61065915        2.48818284
 C           -0.66214123       -0.91607205        3.53152607
 C           -0.71882915        0.53336281        3.39159654
 C           -1.21814841       -1.71576480        2.52679433
 C            0.81931916       -3.12931486        2.50627095
 C           -0.51992717       -2.81852940        2.02958818
 C            2.60291463       -2.00905176        1.50298613
 C            1.69755349       -3.12416926        1.34851319
 C            2.58750543        0.33781238        0.86215676
 C            2.58716713       -1.02388572        0.51712238
 C            2.22021348        1.25533163       -0.11575649
 C            0.55309931        2.07657066        1.42057696
 C            1.13520364        2.10563094        0.14852327
 C           -1.44239754        1.06159575        2.33006192
 C           -0.84114677        2.03418740        1.52083880
 C           -2.23922084       -1.17304174        1.75202335
 C           -2.44065983        0.26461355        1.78310070
 C           -2.40620918       -1.60331361        0.37005429
 C           -0.52729301       -3.08087562        0.59838082
 C            0.86172132       -3.15026121        0.16452199
 C           -1.44864497       -2.42615556       -0.21840099
 C            2.19756976       -1.38823528       -0.77837986
 C            1.23544184       -2.39700450       -0.94331537
 C            2.53087961        0.92715802       -1.42523002
 C            2.41395086       -0.46642763       -1.80191591
 C            2.00652258        1.73561660       -2.50229435
 C            0.42458956        2.69931781       -0.90269005
 C            0.93068318        2.65472856       -2.20395849
 C           -1.58958232        2.60655547        0.49692616
 C           -0.89555682        3.09590128       -0.68248361
 C           -3.05485659        0.65650101        0.53027993
 C           -2.96576835       -0.48204482       -0.37539549
 C           -2.79250956        1.92482078        0.03803288
 C           -2.60381924       -0.27460543       -1.70593718
 C           -1.12149432       -2.24054331       -1.56068998
 C            0.28065976       -2.26955105       -1.94607499
 C           -1.77263719       -1.19696223       -2.33829394
 C            1.60588129       -0.51628699       -3.00826141
 C            1.53827410        0.83272592       -3.54266777
 C            0.47630549       -1.32063515       -3.02506590
 C           -0.82719396       -0.75603105       -3.35562386
 C            0.02048747        2.60056479       -3.33696704
 C            0.26748397        1.34350001       -4.02379607
 C           -0.92677824        0.52851844       -3.87913141
 C           -1.85501627        3.06974330       -1.77368954
 C           -2.90033889        2.13842651       -1.39232878
 C           -2.79317319        0.98743742       -2.27034902
 C           -1.40466490        2.69452279       -3.09849052
 C           -1.99132804        1.39766634       -3.41197017
