56
Modified xyz file
 C            1.55907523        0.10191935        3.88828265
 C            0.75333457       -1.08627389        3.67483130
 C            1.37160269       -1.86849599        2.61655128
 C            2.61831119        0.09810466        2.89600522
 C            2.59853851       -1.18953650        2.22743264
 C            2.48522595        1.29890815        2.08703390
 C            0.71766526        1.25550239        3.62776907
 C            1.38040478        2.07480621        2.63031366
 C           -0.62522004       -0.66602741        3.50634392
 C           -0.62803969        0.78069425        3.34893968
 C           -1.43792681       -1.42428376        2.68113891
 C            0.55394908       -2.43370699        1.63626303
 C           -0.82786407       -2.44553438        1.84183759
 C            1.06790038       -2.67316304        0.35695510
 C            2.99047142       -1.23723655        0.90058747
 C            2.31170484       -2.15033055        0.00151060
 C            2.64257000        1.19556316        0.70371030
 C            3.16665326        0.01301393        0.17574347
 C            1.99198406        2.10390207       -0.13877366
 C            0.58846104        2.80147734        1.75786844
 C            1.02373727        2.96180344        0.38396087
 C           -1.33785985        1.35972337        2.29542891
 C           -0.84137268        2.53043433        1.71684899
 C           -2.43224593       -0.75245240        1.86704544
 C           -2.31929656        0.61767884        1.62887228
 C           -1.72980698       -2.68054277        0.72586090
 C           -2.76074616       -1.65272563        0.77118212
 C            0.23627865       -3.18110766       -0.64063282
 C           -1.20549068       -3.08325227       -0.49359563
 C            0.55268020       -2.91778265       -2.03468320
 C            2.52839848       -1.65343436       -1.34958156
 C            3.01454565       -0.28493191       -1.23926461
 C            1.62565387       -1.99121823       -2.34949653
 C            2.09879015        1.96553229       -1.52233276
 C            2.52223766        0.69614678       -2.08736297
 C            1.04699259        2.49464068       -2.37473669
 C           -0.16027514        3.28047156       -0.40081085
 C           -1.32408822        2.96288944        0.41527110
 C           -0.16835368        2.99973211       -1.76095042
 C           -2.98679486        1.17296917        0.53759603
 C           -2.41226102        2.31548781       -0.15121903
 C           -3.26957282       -1.12699957       -0.40931243
 C           -3.55664859        0.29520370       -0.47118470
 C           -1.74714013       -2.54049274       -1.73151654
 C           -0.65757553       -2.44204700       -2.68505998
 C           -2.68746058       -1.51849087       -1.68432350
 C            1.07764204       -0.95248872       -3.20885485
 C            1.58468807        0.33959749       -3.14296710
 C            0.67449476        1.45576491       -3.32131924
 C           -0.36329727       -1.15242695       -3.28522766
 C           -1.29184826        2.28127680       -2.34349022
 C           -2.42534462        2.03171542       -1.57940708
 C           -3.13714233        0.78229136       -1.77532941
 C           -2.46751331       -0.30754933       -2.46364381
 C           -0.75377329        1.22562876       -3.19094847
 C           -1.22903255       -0.08034765       -3.06515918
