56
Modified xyz file
 C            1.55437990        0.14887964        3.92638704
 C            0.73047953       -1.03767298        3.79210361
 C            1.28524483       -1.86119411        2.72958425
 C            2.59632519        0.07784777        2.91888223
 C            2.50632493       -1.21746367        2.26919922
 C            2.50915722        1.27369956        2.09662649
 C            0.72007923        1.29504156        3.61366995
 C            1.40053143        2.07350930        2.59746199
 C           -0.64915553       -0.60490810        3.66721122
 C           -0.62047676        0.81005265        3.32780381
 C           -1.51202963       -1.42631040        2.96598737
 C            0.39914034       -2.43361273        1.81313540
 C           -0.93828114       -2.51830123        2.19560343
 C            0.74011816       -2.48340944        0.45067696
 C            2.83975759       -1.29771901        0.92948867
 C            2.02787402       -2.12007905        0.05437501
 C            2.69920312        1.15552069        0.71902880
 C            3.12787911       -0.07020799        0.20300145
 C            2.13399540        2.10606884       -0.13812973
 C            0.62399893        2.76336170        1.68309965
 C            1.13993477        2.95791542        0.34346719
 C           -1.26790446        1.26278267        2.17321277
 C           -0.78391017        2.40685546        1.54419914
 C           -2.47860350       -0.80916179        2.08470680
 C           -2.15636599        0.41675641        1.49639946
 C           -1.93794294       -2.90482488        1.22497095
 C           -2.98775837       -1.89507223        1.27321507
 C           -0.23111365       -2.75656391       -0.52746833
 C           -1.54235447       -3.04523333       -0.15701532
 C            0.02394410       -2.45857407       -1.86819459
 C            2.26133073       -1.64674570       -1.29965912
 C            2.94868980       -0.36482140       -1.20790250
 C            1.27749469       -1.83739590       -2.25704517
 C            2.29672306        1.97119059       -1.51636757
 C            2.61016966        0.66613547       -2.07222461
 C            1.34949322        2.61579324       -2.41411228
 C           -0.00775949        3.26362096       -0.49118415
 C           -1.17023684        2.69117916        0.17583057
 C            0.11297794        3.14877420       -1.86835590
 C           -2.50240277        0.67576138        0.15562177
 C           -1.98192471        1.79318457       -0.50746488
 C           -3.38688692       -1.61511254       -0.08356905
 C           -2.63057190       -2.50320636       -0.95183897
 C           -3.20082883       -0.27518080       -0.59497867
 C           -1.03306171       -1.88635361       -2.69174633
 C           -2.30902300       -1.75818103       -2.15703796
 C           -2.88344346       -0.42832274       -2.00160601
 C            0.97818715       -0.78168317       -3.21314057
 C            1.68538743        0.41664852       -3.16627750
 C            1.00876590        1.66732338       -3.46301013
 C           -0.46194459       -0.78170342       -3.44540683
 C           -0.98831969        2.57363572       -2.61885666
 C           -2.02597650        1.85070639       -1.90184046
 C           -2.30444784        0.64449310       -2.66033285
 C           -0.43342691        1.67330112       -3.61887280
 C           -1.16143562        0.41897613       -3.53131132
