56
Modified xyz file
 C            1.31809787       -0.06698830        3.70671920
 C            2.56521613       -0.24213421        2.98754825
 C            2.56187962       -1.58446665        2.43631375
 C            0.47425272       -1.22058488        3.42047117
 C            1.20720026       -2.09787133        2.53231912
 C           -0.81516587       -0.72206761        2.99228691
 C            0.52365751        1.12295858        3.46038372
 C           -0.85730805        0.68722499        3.33622534
 C            1.00617345        2.10704372        2.60161405
 C            2.89585134        0.67413211        1.90971049
 C            2.15712944        1.83751211        1.74645155
 C            3.17263417       -1.52682548        1.12247216
 C            3.23861226       -0.11972191        0.74041326
 C            2.74310344       -2.44417142        0.17551491
 C            0.59793537       -2.56482053        1.37015080
 C            1.42637120       -3.04315024        0.35371377
 C           -1.33058983       -1.13280086        1.76496117
 C           -0.71424403       -2.17581185        1.06391470
 C           -2.31217001       -0.34876882        1.14529873
 C           -1.76611383        1.49436614        2.67039612
 C           -2.67547972        0.86703560        1.73055564
 C            0.06135276        2.90256358        1.83379895
 C           -1.30050922        2.72114331        2.03759516
 C            1.82878619        2.28507497        0.40551035
 C            0.57121816        3.01483959        0.47248972
 C            2.79920645        0.27047612       -0.52939060
 C            2.08379612        1.46471212       -0.69057989
 C            2.85829224       -2.07825767       -1.22097895
 C            2.82716170       -0.66852093       -1.56222882
 C            0.87822047       -3.31679340       -0.96287357
 C            1.78252293       -2.73445776       -1.94300132
 C           -1.31546367       -2.65495493       -0.09522732
 C           -0.49027394       -3.20522115       -1.16058304
 C           -2.78457075       -0.68534752       -0.13018428
 C           -2.38573453       -1.88698871       -0.70806949
 C           -3.29414390        0.30646014       -0.97319542
 C           -3.19264283        1.93676911        0.90340270
 C           -2.21143450        3.00982052        0.94427510
 C           -3.47763763        1.65792434       -0.48548888
 C           -0.30774299        2.96912322       -0.61070730
 C           -1.67450041        3.15019050       -0.39795683
 C           -2.62857152        2.52071305       -1.29447982
 C            1.39391311        1.71480851       -1.87492919
 C            0.14186214        2.45566265       -1.82808684
 C            1.94521361       -0.51936334       -2.70746426
 C            1.26057853       -1.78854958       -2.91639869
 C            1.25941696        0.67276333       -2.87758651
 C           -0.97303563       -2.66437905       -2.42015719
 C           -2.19746625       -1.93522506       -2.14974139
 C           -0.10035573       -1.80293615       -3.20223755
 C           -2.76974188        0.42313082       -2.32252092
 C           -2.13546529        1.72970790       -2.40885003
 C           -0.79138394        1.81265956       -2.74511475
 C           -0.12466538        0.65750994       -3.32505004
 C           -2.14779617       -0.68354242       -2.88484791
 C           -0.80544866       -0.55160476       -3.43657598
