56
Modified xyz file
 C            1.50257210        0.07352094        3.88980590
 C            0.70609286       -1.13621311        3.79478703
 C            1.24339182       -1.93702445        2.71033180
 C            2.58920326       -0.04792889        2.93669468
 C            2.55618699       -1.39468121        2.39647652
 C            2.49858892        1.06110982        2.00123758
 C            0.66220546        1.17679493        3.46120125
 C            1.23649182        1.73487849        2.25832988
 C           -0.67991414       -0.73502679        3.71144721
 C           -0.69828785        0.69243242        3.40163381
 C           -1.54135435       -1.55716284        3.00184533
 C            0.38642998       -2.32679302        1.67447440
 C           -0.98545644       -2.35707882        1.91094289
 C            0.85893227       -2.33510072        0.35799151
 C            3.04883810       -1.57336591        1.11716705
 C            2.23817180       -2.31015311        0.16880917
 C            2.87607565        0.82908684        0.67886175
 C            3.48640543       -0.39579857        0.39183558
 C            2.21249592        1.52205595       -0.34443952
 C            0.40819484        2.00542040        1.18017082
 C            0.99712749        2.16080943       -0.06766987
 C           -1.53501106        1.13758236        2.37881285
 C           -0.98112146        1.81349677        1.27288214
 C           -2.76365891       -0.95961119        2.50927397
 C           -2.74425621        0.46377780        2.23308102
 C           -1.89318330       -2.26191488        0.78253637
 C           -3.10316748       -1.62583159        1.26825687
 C           -0.00790761       -2.00519893       -0.70324389
 C           -1.38809007       -1.90983994       -0.46902429
 C            0.49149109       -1.78868452       -1.99885908
 C            2.77923054       -2.00326289       -1.13721208
 C            3.62808361       -0.82580879       -0.98408555
 C            1.86569073       -1.73720117       -2.22202950
 C            2.60348779        1.32996036       -1.67139279
 C            3.28230323        0.10372431       -2.03572951
 C            2.40442356       -0.60224621       -2.94918218
 C            1.66461668        1.61098436       -2.74347065
 C            1.46678985        0.36497769       -3.48362872
 C            0.24363983        2.72007888       -1.08968330
 C            0.57414977        2.42916976       -2.47536223
 C           -1.78970577        2.15451927        0.17390471
 C           -1.20236592        2.73034085       -0.95493096
 C           -3.53986691        0.66822915        1.04665769
 C           -3.74560352       -0.63903654        0.43058345
 C           -3.03761747        1.55187066        0.01620827
 C           -2.22076890       -1.26217544       -1.39461670
 C           -3.31034182       -0.51779898       -0.94310450
 C           -3.34664419        0.89983787       -1.24414759
 C           -0.33222966       -1.20205760       -2.95739718
 C            0.17223077       -0.07114407       -3.72945700
 C           -1.72591898       -0.95060620       -2.65406083
 C           -0.67079489        2.20575291       -3.19000634
 C           -1.76710678        2.44033235       -2.26526346
 C           -2.70482846        1.33758250       -2.39108417
 C           -0.88518415        0.91609192       -3.81661825
 C           -2.08315585        0.33432742       -3.24054132
