56
Modified xyz file
 C            1.48058135       -0.07785343        3.92849572
 C            0.69657389       -1.19654575        3.44868594
 C            1.42247738       -1.82108670        2.36031517
 C            2.61603711        0.07006048        3.03420032
 C            2.46177785       -0.89159230        1.95625011
 C            2.70717406        1.46983810        2.70045609
 C            0.66210264        1.11468693        3.79128239
 C            1.48851295        2.12135022        3.17263535
 C           -0.64097220       -0.71789592        3.15985091
 C           -0.57513232        0.73203299        3.13297587
 C           -1.32510819       -1.35151699        2.13609770
 C            0.66687869       -2.41652832        1.36425865
 C           -0.71630579       -2.45109786        1.53338961
 C            1.16183924       -2.40105201        0.06512370
 C            2.50027185       -0.46753937        0.62375461
 C            1.91792590       -1.29196528       -0.35443268
 C            2.86545578        1.83725108        1.30887925
 C            2.86194774        0.85555829        0.31539718
 C            0.94895054        2.86184857        2.05146162
 C            2.04774830        3.01993233        1.11791904
 C           -0.99361075        1.40040405        1.97754501
 C           -0.31682829        2.55502285        1.54707689
 C           -2.20914217       -0.59880485        1.37129886
 C           -1.90676530        0.75283875        1.12756875
 C           -3.07242530       -1.29464665        0.52882845
 C           -1.46575179       -3.20239949        0.63588577
 C           -2.75641626       -2.68066024        0.21719698
 C            0.52811086       -3.21961141       -0.86630637
 C           -0.79625926       -3.72861944       -0.54233050
 C            0.51265798       -2.82499250       -2.25528904
 C            1.89908007       -0.88589496       -1.69890165
 C            1.06040895       -1.53505950       -2.59831540
 C            2.79204024        1.29100751       -1.00223811
 C            2.21951463        0.42726970       -2.01141243
 C            1.75873169        3.41831852       -0.17768409
 C            2.32590490        2.64557064       -1.27027729
 C           -0.67618406        3.14522376        0.34159666
 C            0.37090700        3.69077803       -0.51276766
 C           -2.32242834        1.37107399       -0.06318559
 C           -1.63910306        2.49022218       -0.51630746
 C           -3.52207791       -0.66788213       -0.69191742
 C           -2.96178179        0.61533666       -1.03980971
 C           -2.87068961       -2.85839843       -1.22168983
 C           -1.66024936       -3.50554851       -1.69071791
 C           -0.86549937       -2.86160746       -2.72036156
 C           -3.25900554       -1.58195249       -1.79292494
 C            0.01393234       -0.75446997       -3.24175899
 C           -2.31675514        0.49158850       -2.33868846
 C           -1.21396379       -1.52293212       -3.17674746
 C           -2.37160259       -0.90402442       -2.72819401
 C            1.24744611        1.20279296       -2.76736490
 C            1.33858449        2.58099204       -2.33572481
 C            0.13563669        3.22413619       -1.86961663
 C           -1.08778911        2.45130458       -1.86255391
 C            0.00437996        0.62346946       -3.02829328
 C           -1.17174387        1.25226911       -2.57261450
