56
Modified xyz file
 C            1.46338327       -0.27010251        4.11366530
 C            0.57067270       -1.41151648        4.03286822
 C            1.04953608       -2.26556357        2.96460789
 C            2.44046797       -0.38730880        3.04224811
 C            2.16849414       -1.60595140        2.31721323
 C            2.43646661        0.85517306        2.30507828
 C            0.67846656        0.92124431        3.85042552
 C            1.40551055        1.71130538        2.87923354
 C           -0.74104296       -0.92811027        3.63580450
 C           -0.66666044        0.51378117        3.50374951
 C           -0.09075584       -2.60872101        2.13496807
 C           -1.17117406       -1.70153714        2.48251823
 C            0.13811876       -2.82733358        0.78595641
 C            2.16848800       -1.58346664        0.92752130
 C            1.41423649       -2.55908611        0.28576158
 C            2.56755401        0.82750644        0.91659818
 C            2.43713713       -0.39348705        0.22978475
 C            2.29027497        2.01743233        0.24466467
 C            0.68339532        2.50885710        2.00038999
 C            1.37983103        2.95231616        0.88261725
 C           -1.24553287        1.10081307        2.38743530
 C           -0.69843157        2.28810528        1.88874603
 C           -1.83724925       -1.04629479        1.44625943
 C           -2.06680499        0.32680818        1.56202284
 C           -0.93989278       -2.67964593       -0.07931633
 C           -1.85115815       -1.64038671        0.17488546
 C           -0.78635904       -3.18978062       -1.36303944
 C            1.63480677       -2.74886689       -1.06898581
 C            0.57182011       -3.36021539       -1.84527346
 C            2.25031924       -0.38699467       -1.16110511
 C            2.12506358       -1.60836524       -1.82397038
 C            1.95986901        1.98909518       -1.16751303
 C            1.75280520        0.76292106       -1.77890120
 C            0.68245233        3.68445575       -0.15272558
 C            1.01954111        3.06867277       -1.42657370
 C           -1.44322624        3.01905287        0.96421580
 C           -0.75878405        3.77844928       -0.06884828
 C           -2.81035040        0.96205275        0.58032578
 C           -2.58990547        2.38036887        0.34240748
 C           -2.51889721       -0.99648916       -0.88298387
 C           -2.96219487        0.31400487       -0.70853528
 C           -1.56970634       -2.63404841       -2.44111049
 C           -2.27954685       -1.39970575       -2.19673903
 C            0.65044513       -2.82555862       -3.18984427
 C            1.47929801       -1.63355510       -3.12613835
 C           -0.68794889       -2.42053347       -3.57833082
 C            0.73993588        0.65357202       -2.73651730
 C           -1.78204052       -0.40479831       -3.13915143
 C            0.66212425       -0.49809379       -3.50689221
 C           -0.65775637       -0.99317471       -3.83611331
 C           -0.22187188        2.75865345       -2.11376858
 C           -1.30045230        3.36689188       -1.35282019
 C           -2.48872809        2.58316686       -1.09429693
 C           -2.60127786        1.28595177       -1.72586613
 C           -0.38673914        1.47728670       -2.63787637
 C           -1.66602577        0.90075356       -2.67873574
