56
Modified xyz file
 C            1.44400166       -0.02205812        3.93938790
 C            0.67178924       -1.21345732        3.66624144
 C            1.25108012       -1.88645004        2.51276799
 C            2.57792552       -0.02796309        3.03904051
 C            2.39838823       -1.11074524        2.08601245
 C            2.69279626        1.31186110        2.51110709
 C            0.61200153        1.11486357        3.57578034
 C            1.37283772        1.91956569        2.65306933
 C           -0.70996063       -0.79578607        3.56147594
 C           -0.66674621        0.59642108        3.14029921
 C           -1.54975435       -1.63626744        2.86379379
 C            0.36685865       -2.39882027        1.56778381
 C           -0.92428584       -2.64624469        2.02573724
 C            0.56001681       -2.10106170        0.20605494
 C            2.57001168       -0.82841681        0.73663373
 C            1.71061485       -1.40725355       -0.20393592
 C            3.32503537        1.45436185        1.28764927
 C            3.31915435        0.30295006        0.39032212
 C            2.94991177        2.60141719        0.48783990
 C            0.75221792        2.42276504        1.51329353
 C            1.58746658        3.08345349        0.61754879
 C           -1.15787173        0.93644497        1.87316406
 C           -0.44249398        1.82593387        1.05164212
 C           -2.53120527       -1.03008946        1.99827559
 C           -2.17820344        0.14621867        1.32662553
 C           -1.93561728       -3.07146644        1.08864639
 C           -3.05528246       -2.15185868        1.25169975
 C           -0.43693428       -2.43034297       -0.73748706
 C           -1.60755589       -3.06882889       -0.31647292
 C           -0.35449001       -1.95190095       -2.05555636
 C            1.89772881       -1.12147140       -1.55246675
 C            0.80667335       -1.31834611       -2.48412050
 C            3.29085557        0.80638098       -0.97364152
 C            3.15660858        2.25222189       -0.90361514
 C            2.58655640        0.09877219       -1.93808006
 C            1.11615391        3.39703965       -0.70719756
 C            2.10429887        2.90094665       -1.65998339
 C           -0.90899284        2.08105807       -0.24868912
 C           -0.17110552        2.88981689       -1.11665596
 C           -2.57770131        0.33498984       -0.00452033
 C           -1.93422782        1.29914567       -0.79258837
 C           -3.59220734       -1.90309152       -0.05949729
 C           -2.85852620       -2.75984223       -0.97738845
 C           -3.47909910       -0.56473977       -0.59452971
 C           -1.51484396       -1.77448010       -2.81580920
 C           -2.81015256       -2.05925607       -2.23772808
 C           -3.45195604       -0.76854897       -2.02668534
 C           -2.10966838        1.30730928       -2.18255928
 C           -1.68852278       -0.52704420       -3.53225349
 C           -2.74847861        0.19091593       -2.84008655
 C            0.70452259       -0.12299153       -3.31678689
 C            1.73481854        0.80573334       -2.88723742
 C            1.38542514        2.13484419       -2.65926657
 C           -0.01729260        2.47635366       -2.49808945
 C           -0.55560255        0.37461998       -3.62562470
 C           -0.97697106        1.63241888       -3.02333935
