56
Modified xyz file
 C            1.47831431       -0.29080656        4.56023275
 C            0.62212427       -1.44512824        4.37269766
 C            1.18153650       -2.23482001        3.29004710
 C            2.53763808       -0.35908540        3.56565426
 C            2.24469223       -1.46890305        2.67834400
 C            2.66522450        0.96044955        2.99430862
 C            0.69096715        0.89093126        4.25726347
 C            1.53488606        1.75449503        3.46291620
 C           -0.67435606       -0.96758271        3.92029038
 C           -0.57689970        0.45557535        3.68911680
 C            0.07849103       -2.62440462        2.44095825
 C           -1.06535549       -1.79853628        2.80889363
 C            0.31340309       -2.79149756        1.07997032
 C            2.17907619       -1.26455705        1.29906643
 C            1.44659050       -2.17549520        0.52597334
 C            2.70390360        1.09013478        1.54940557
 C            2.55171075       -0.02943553        0.73812047
 C            0.95398722        2.37956709        2.29520527
 C            1.92420544        2.26147746        1.22395847
 C           -0.98277048        0.96560883        2.45112622
 C           -0.38017470        2.13989953        1.97952778
 C           -1.79451581       -1.23425080        1.76890433
 C           -1.72857774        0.15597429        1.56690088
 C           -0.82849850       -2.89388578        0.29522486
 C           -1.95369325       -2.05109231        0.66072111
 C           -0.71738686       -2.88481723       -1.14939726
 C            1.59062130       -2.12406336       -0.85899256
 C            0.50694446       -2.57492259       -1.71947517
 C            2.30845704        0.19453768       -0.61863337
 C            2.13353634       -0.91321836       -1.44226496
 C            1.44768863        2.39084649       -0.07306754
 C            1.85439637        1.45842393       -1.03363348
 C           -0.81790402        2.67790588        0.78012762
 C            0.19432037        2.97899931       -0.21833241
 C           -2.19267551        0.70473556        0.35762757
 C           -1.90527775        2.03685459        0.07608126
 C           -2.50349241       -1.50455052       -0.55493505
 C           -1.92447393       -2.25556657       -1.65894091
 C           -2.65737812       -0.12875872       -0.67202147
 C           -1.91548607       -1.67566089       -2.91874815
 C            0.54535408       -1.78541958       -2.94059361
 C            1.56543130       -0.75662312       -2.76899519
 C           -0.64326259       -1.48854162       -3.60478086
 C            1.43677809        1.65157518       -2.35254939
 C            1.35769438        0.52287603       -3.26383218
 C           -0.45048251        2.95875839       -1.51560437
 C           -1.81340235        2.47847913       -1.30540010
 C            0.28158148        2.50102491       -2.60372808
 C           -2.90693614        0.39402972       -1.94464250
 C           -2.68776299       -0.46185809       -3.10137048
 C           -2.43270830        1.72331703       -2.28833264
 C           -0.73606897       -0.26662911       -4.38556569
 C            0.26232281        0.76785014       -4.18798439
 C           -0.42553497        1.97425062       -3.75547907
 C           -2.04253061        0.32223838       -4.13820519
 C           -1.83427177        1.65929471       -3.61315855
