56
Modified xyz file
 C            1.41337280       -0.31568912        4.60233654
 C            0.46431223       -1.38957735        4.39385782
 C            0.96260386       -2.21296205        3.30469974
 C            2.48758439       -0.48696829        3.63845523
 C            2.10190540       -1.54615943        2.71837142
 C            2.76918908        0.82242038        3.09626626
 C            0.74398379        0.93115668        4.27121441
 C            1.67984208        1.70842453        3.49159337
 C           -0.78089723       -0.79492510        3.93740696
 C           -0.54474748        0.60644272        3.67883600
 C           -0.15858644       -2.48409680        2.44264404
 C           -1.24643654       -1.59930376        2.83741471
 C            0.06141198       -2.61958500        1.07814900
 C            2.09095231       -1.29375110        1.34193568
 C            1.18018238       -1.98373117        0.51154050
 C            2.91489082        0.94889374        1.66108155
 C            2.77580221       -0.17230665        0.85093516
 C            1.19688822        2.34620968        2.28454000
 C            2.21308115        2.15526010        1.26804112
 C           -0.87164497        1.11583549        2.41706061
 C           -0.13205570        2.19277963        1.90619290
 C           -1.94695983       -0.98607934        1.80697038
 C           -1.72852933        0.38205154        1.56709250
 C           -1.09537866       -2.68645676        0.32098099
 C           -2.18068097       -1.80371815        0.71482850
 C           -1.00634498       -2.64265199       -1.11709826
 C            1.23432404       -1.79101941       -0.88165045
 C            0.17854507       -2.21789348       -1.70354561
 C            2.77994471        0.06356967       -0.51279880
 C            2.17410059       -0.90478678       -1.39735744
 C            1.83556632        2.28655541       -0.06658522
 C            2.37704001        1.38451664       -0.98150032
 C           -0.47049084        2.70727849        0.66675524
 C            0.58455546        2.84239592       -0.33102977
 C           -2.12382702        0.94030943        0.33701231
 C           -1.63704125        2.19496593       -0.01432144
 C           -2.73326441       -1.23805967       -0.49040130
 C           -2.26566986       -2.08222007       -1.57661786
 C           -2.72191302        0.14121389       -0.65097192
 C           -2.34287024       -1.59945437       -2.87133068
 C            0.14141691       -1.83982569       -3.04964597
 C           -1.15502103       -1.69850922       -3.70159558
 C            1.89132943       -0.19966531       -2.63233257
 C            1.76594799        1.21136956       -2.29006704
 C            0.98426725       -0.75061185       -3.51706740
 C           -0.03164926        2.67345760       -1.63774438
 C           -1.46462198        2.52987742       -1.41447375
 C            0.59421808        1.89654132       -2.61319851
 C           -2.91954156        0.64979845       -1.93882086
 C           -2.90575080       -0.27457167       -3.06625422
 C           -2.21789522        1.85384753       -2.35501418
 C           -1.10580937       -0.52383609       -4.55422321
 C            0.14546697        0.15692607       -4.27707439
 C           -0.15860218        1.45649397       -3.70142355
 C           -2.19096123        0.35874662       -4.16042718
 C           -1.60553412        1.58107725       -3.64164106
