56
Modified xyz file
 C            1.24762551       -0.13762844        3.46585450
 C            2.30744548       -0.34919678        2.49603743
 C            2.25229561       -1.74837574        2.09579313
 C            0.37515182       -1.30207444        3.42804526
 C            0.96944971       -2.27681897        2.53271048
 C           -0.97431026       -0.83353511        3.16738359
 C            0.41691454        1.04684938        3.35686586
 C           -0.97101359        0.61163609        3.34739056
 C            0.81999632        2.07489892        2.51531950
 C            2.58583623        0.63471823        1.54535114
 C            1.94329716        1.87019656        1.60947028
 C            3.24468220        0.28243525        0.37131796
 C            2.76937253       -2.12168783        0.86137144
 C            3.46312977       -1.12224005        0.07139490
 C            1.96407800       -2.92570594       -0.04785800
 C            0.15455129       -2.93952310        1.62478048
 C            0.68262929       -3.32128951        0.32448677
 C           -1.71988800       -1.40295980        2.13333672
 C           -1.22520372       -2.50728034        1.44113755
 C           -2.78370272       -0.69139510        1.58697522
 C           -1.93134459        1.37819849        2.69878937
 C           -2.98295271        0.69623085        1.96851492
 C           -0.17768289        2.87328322        1.82063982
 C           -1.52480669        2.53597783        1.91399238
 C            1.66560548        2.59695773        0.37891392
 C            0.38342601        3.27220103        0.53943934
 C            2.89707802        0.95357080       -0.87216166
 C            2.02476880        2.03804004       -0.84940000
 C            3.13270390       -1.34034447       -1.32690863
 C            2.21523686       -2.46037710       -1.40494127
 C            2.73376171       -0.06584740       -1.89816896
 C            1.17202849       -2.40186480       -2.32053319
 C           -0.40641508       -3.25182443       -0.63708976
 C           -1.56766049       -2.68385534        0.03717043
 C           -0.14158475       -2.91176390       -1.95673534
 C           -3.06384861       -0.80559316        0.16361114
 C           -2.36676706       -1.73460695       -0.60353573
 C           -3.26532385        1.45800056        0.76352881
 C           -2.37360402        2.60087056        0.73220264
 C           -3.26533529        0.53745087       -0.36004735
 C           -0.45041308        3.43696646       -0.55819236
 C           -1.83303013        2.98829627       -0.48751108
 C            1.26062361        2.30090774       -1.98458295
 C            0.05456664        3.10175764       -1.87545042
 C            1.62794610       -0.00736210       -2.74293683
 C            0.97366173       -1.18872130       -3.10314975
 C            0.99528096        1.22322597       -2.92611269
 C           -1.12992541       -2.14771113       -2.69291757
 C           -2.18947434       -1.47683626       -1.96139593
 C           -0.42780256       -1.14667045       -3.47971798
 C           -2.63813834        0.90358508       -1.54851714
 C           -2.09844295        2.18661541       -1.67512379
 C           -1.00335089        2.41638191       -2.60014852
 C           -0.41713810        1.28115653       -3.28373797
 C           -2.25780446       -0.10312716       -2.43736343
 C           -1.14617917        0.10580767       -3.35758725
