56
Modified xyz file
 C            1.25331922       -0.06094686        3.70461507
 C            2.53627838       -0.28884316        3.06981186
 C            2.48664215       -1.59303458        2.43185039
 C            0.41247401       -1.21773663        3.43384645
 C            1.12330776       -2.09076279        2.53099522
 C           -0.88336423       -0.73773440        3.03040975
 C            0.49754677        1.13221503        3.35861739
 C           -0.85320481        0.71650263        3.02547369
 C            1.09843766        2.13660239        2.61321296
 C            3.01024884        0.66914022        2.08840830
 C            2.41810430        1.92462563        2.02351067
 C            3.08127145       -1.47098847        1.11263873
 C            3.27662491       -0.05290233        0.85027907
 C            2.57662413       -2.27018257        0.10141803
 C            0.49629331       -2.54301824        1.37014850
 C            1.32827256       -2.97666586        0.34031605
 C           -1.55821329       -1.37315175        1.99890475
 C           -0.83798983       -2.17502859        1.08852842
 C           -2.71128864       -0.73067458        1.57416843
 C           -1.58163313        1.38652226        2.03984983
 C           -2.69794753        0.72276405        1.52573923
 C            0.29604680        2.87272904        1.65342575
 C           -0.96717818        2.40240005        1.29138675
 C            2.45090910        2.63365435        0.75893937
 C            1.19531598        3.35037896        0.61699105
 C            2.87416787        0.49567163       -0.37198507
 C            2.66027737        1.87195096       -0.45902233
 C            2.48455967       -1.72533217       -1.23805290
 C            2.45333040       -0.34302491       -1.41131784
 C            0.76821502       -3.29395790       -0.95120359
 C            1.52916466       -2.55649870       -1.95106535
 C           -1.42672046       -2.55266524       -0.13859102
 C           -0.63003305       -3.02491217       -1.17977520
 C           -3.40975530       -1.21773462        0.41292510
 C           -2.71042818       -2.11944472       -0.47024908
 C           -3.27541511        1.12261060        0.25574192
 C           -3.83776973       -0.06503994       -0.36538233
 C           -1.48318516        2.77236152        0.04684300
 C           -2.61204668        2.05935207       -0.52139344
 C            0.77955637        3.24551998       -0.77002765
 C            1.74688353        2.39991931       -1.45724532
 C           -0.57379649        3.09776742       -1.04283987
 C            1.77926560        0.19077893       -2.51185973
 C            1.32939316        1.57191876       -2.48909854
 C            0.58167720       -1.92975014       -2.85515242
 C           -0.74213348       -2.41039039       -2.49327618
 C            0.75827454       -0.59423303       -3.19339046
 C           -2.96696541       -1.67222593       -1.83071685
 C           -3.54612351       -0.34094628       -1.75902722
 C           -1.85819880       -1.63110849       -2.76844814
 C           -2.30335891        1.77490569       -1.91948159
 C           -0.99474851        2.33936180       -2.20940681
 C           -0.06064577        1.59390564       -2.92113323
 C           -0.40251966        0.26017435       -3.39415065
 C           -2.67507134        0.56101362       -2.49059768
 C           -1.68274750       -0.24581148       -3.18510526
