56
Modified xyz file
 C            1.06560873        0.00574909        4.14059532
 C            2.30032156       -0.15983003        3.39563593
 C            2.26400024       -1.47625622        2.78679526
 C            0.23140524       -1.16139459        3.88401951
 C            0.89943818       -1.96196448        2.87995453
 C           -1.11080766       -0.70267624        3.61856638
 C            0.25551078        1.18623465        3.90656953
 C           -1.12281509        0.74443120        3.76266404
 C            0.73619908        2.19976157        3.08179425
 C            2.63233514        0.79407787        2.35104063
 C            1.90748627        1.97177963        2.23953559
 C            2.85605603       -1.37261581        1.46726160
 C            2.95381906        0.04288534        1.14682936
 C            2.37461167       -2.22030422        0.48464488
 C            0.24435708       -2.31608320        1.69800958
 C            1.04161900       -2.78609525        0.65838319
 C           -1.71382760       -1.01972282        2.33880890
 C           -1.02714683       -1.79383015        1.39946086
 C           -1.93885608        1.28728848        2.68798157
 C           -2.40772545        0.17031038        1.88275900
 C           -0.20898208        2.98675462        2.30842264
 C           -1.53730626        2.45272998        2.05095065
 C            1.60920993        2.48894030        0.91602383
 C            0.40811420        3.28463831        1.02580368
 C            2.50228134        0.48406678       -0.10093839
 C            1.75559880        1.66608863       -0.19758842
 C            2.45212490       -1.78418022       -0.89485133
 C            2.50130068       -0.41758180       -1.16866332
 C            0.47214425       -2.95937076       -0.66259063
 C            1.51267652       -2.61750332       -1.62052955
 C           -1.47696100       -1.76343590        0.07083144
 C           -0.82626086       -2.53298779       -0.90360847
 C           -2.58612515        0.33374098        0.51501959
 C           -2.41002944       -0.78383864       -0.30226258
 C           -1.80027352        2.60119507        0.63215398
 C           -0.60083310        3.12837317        0.00118039
 C           -2.50465606        1.61390547       -0.05037805
 C            0.98489782        1.91526006       -1.34161835
 C           -0.23980142        2.59311608       -1.23146024
 C            2.10055151        0.02561062       -2.42511114
 C            1.28861943        1.22610577       -2.51333925
 C            1.13856613       -2.23778586       -2.90039308
 C            1.58060698       -0.93981751       -3.38375210
 C           -1.25473688       -2.49534016       -2.22863844
 C           -0.25460392       -2.39772816       -3.28084318
 C           -2.88072196       -0.72060376       -1.60718206
 C           -2.35736355       -1.63553207       -2.59808043
 C           -2.50460458        1.71720513       -1.43865589
 C           -1.29325260        2.22498788       -2.06552712
 C           -2.96091222        0.58594899       -2.22091093
 C            0.25304680        0.99420553       -3.50879245
 C            0.47364649       -0.32077956       -4.09252924
 C           -0.61578881       -1.28074415       -4.13659951
 C           -1.94814228       -0.85264655       -3.75709384
 C           -1.03904198        1.43962824       -3.25861647
 C           -2.17457748        0.54562942       -3.44114165
