56
Modified xyz file
 C            1.42614878        0.14034582        4.14628910
 C            0.62642415       -1.04075525        3.89183562
 C            1.50225425       -1.99462169        3.25166881
 C            2.56564586        0.09058042        3.24174713
 C            2.66467825       -1.26210288        2.75797866
 C            2.39480081        1.15995390        2.27784896
 C            0.63397827        1.28998255        3.76383196
 C            1.45815762        2.09132976        2.88277034
 C           -0.57598229       -0.62704447        3.18371856
 C           -0.64056069        0.82168231        3.23933552
 C           -0.92472339       -1.27546119        2.00269247
 C            0.98452132       -2.73911431        2.12514255
 C           -0.31531321       -2.49732635        1.68229650
 C            2.71813332       -1.48594139        1.32665132
 C            2.04322760       -2.75065981        1.13393563
 C            2.27579417        0.87187773        0.90890122
 C            2.43597469       -0.44207072        0.43831603
 C            1.72507748        1.85072033        0.07194997
 C            0.79354110        2.95272866        2.03758607
 C            1.23885819        3.02109638        0.66521016
 C           -1.18171881        1.52700425        2.16723688
 C           -0.64534388        2.79151364        1.92780571
 C           -1.63959083       -0.57532731        1.02419524
 C           -1.76491482        0.82524618        1.09902606
 C           -2.17538923       -1.27763080       -0.05862148
 C           -0.69726867       -3.15266687        0.51824695
 C           -1.71144731       -2.56149733       -0.33515400
 C            1.69633846       -3.11009075       -0.15372723
 C            0.36227212       -3.64763783       -0.34704275
 C            2.01982453       -0.77363193       -0.85610231
 C            1.88341456       -2.12280939       -1.20329313
 C            1.35095155        1.52150684       -1.24011318
 C            1.50135544        0.21064334       -1.70097618
 C            0.64138089        2.43888163       -2.02363704
 C            0.20513441        3.78901524        0.00540246
 C           -1.02773536        3.50855541        0.73327362
 C           -0.04995974        3.53871913       -1.39035274
 C           -2.30477532        1.54100508        0.01595330
 C           -1.92701559        2.86764576       -0.19577261
 C           -1.46879992        3.25494401       -1.51578665
 C           -2.87572237       -0.59702419       -1.04642624
 C           -2.86200098        0.85045311       -1.05781988
 C           -2.76663757       -1.04911068       -2.42418434
 C           -1.39683217       -2.93221696       -1.71049115
 C           -0.01650586       -3.37951724       -1.71915075
 C            0.99459178       -2.50354577       -2.28863444
 C           -1.81709344       -2.10069955       -2.73797416
 C            0.96628527       -0.15322656       -2.94246309
 C            0.58621739       -1.53379711       -3.18819637
 C           -0.80521128       -1.53051030       -3.61803925
 C           -0.27190675        1.94619179       -3.03659121
 C           -1.61937830        2.29682917       -2.59075071
 C           -2.55241284        1.28357624       -2.41769872
 C           -2.44498942        0.10228484       -3.24877076
 C           -0.03935951        0.68858888       -3.57123813
 C           -1.17639272       -0.15686379       -3.90183834
