56
Modified xyz file
 C            1.54069779       -0.18449317        4.11130190
 C            0.71057244       -1.37045169        4.20514760
 C            1.22822190       -2.33805572        3.25961261
 C            2.48810947       -0.38190336        3.02490761
 C            2.26181400       -1.69303451        2.46338819
 C            2.38941258        0.76016636        2.14703130
 C            0.68196173        0.91941459        3.73032646
 C            1.34957429        1.63353525        2.65982305
 C           -0.62925031       -1.01893095        3.76091411
 C           -0.64122499        0.39475156        3.45267862
 C            0.09044502       -2.89714860        2.55671890
 C           -1.00625719       -1.95119257        2.71737158
 C            0.32371184       -3.39930223        1.28858170
 C            2.20581603       -1.84802645        1.07872986
 C            1.54144706       -2.97987220        0.61103095
 C            2.43820561        0.57054237        0.77087306
 C            2.34278687       -0.72764876        0.23153548
 C            2.07809822        1.65694430       -0.02379361
 C            0.55926856        2.27574467        1.71667357
 C            1.14889977        2.57354004        0.49162031
 C           -1.25830680        0.82622321        2.28503557
 C           -0.81548536        2.02307467        1.73188450
 C           -1.64679130       -1.46830727        1.57575514
 C           -1.90781772       -0.09287216        1.44950125
 C           -0.73141078       -3.29087439        0.30193354
 C           -1.68846120       -2.28693373        0.44440541
 C            1.31649747       -3.14130667       -0.80686582
 C           -0.08968913       -3.46895302       -0.98631400
 C            2.20970288       -0.88396326       -1.16334532
 C            1.62181233       -2.03502936       -1.68155866
 C            2.29207739        1.55402474       -1.39017585
 C            2.23099183        0.23883250       -1.98907339
 C            1.66475475        2.48889373       -2.30465041
 C            0.45713418        3.44016214       -0.35028550
 C            0.73410528        3.45710994       -1.77248245
 C           -1.60638940        2.61118294        0.75586962
 C           -0.97938985        3.52763335       -0.18142274
 C           -2.54922119        0.38563935        0.29819715
 C           -2.50876085        1.75422643        0.00612152
 C           -2.38407028       -1.85675442       -0.68099342
 C           -2.92958930       -0.51346407       -0.69627628
 C           -0.58678088       -2.70570294       -2.11280389
 C            0.51710600       -1.89861879       -2.61838039
 C           -1.84331603       -2.13220736       -2.00876397
 C            1.28095834        0.31244284       -3.09222526
 C            0.97221079        1.71336963       -3.32143333
 C            0.27135560       -0.64430781       -3.17698937
 C           -0.53200489        3.29617282       -2.47211877
 C           -1.59384666        3.33508663       -1.48273047
 C           -2.50157539        2.20760859       -1.38079066
 C           -0.41550421        2.13575442       -3.33937915
 C           -2.96369694       -0.07793903       -2.08239449
 C           -2.14648351       -0.99817218       -2.85421509
 C           -1.04573675       -0.24083761       -3.42358438
 C           -2.53435804        1.26867547       -2.40211795
 C           -1.41233105        1.16555178       -3.33180595
