56
Modified xyz file
 C            1.08869929       -0.08206486        3.79214502
 C            2.32046973       -0.41018547        3.10799872
 C            2.21388543       -1.77973744        2.63482919
 C            0.23545313       -1.26078129        3.75334091
 C            0.83883336       -2.20225281        2.83293283
 C           -1.11400493       -0.81659885        3.50227832
 C            0.30374499        1.03824311        3.30760004
 C           -1.08630609        0.63398381        3.37464000
 C            0.73264668        1.75670897        2.19214031
 C            2.72126823        0.40728812        1.98311821
 C            2.03523745        1.58088566        1.69453068
 C            2.76569039       -1.83722964        1.29011569
 C            3.05370577       -0.47225064        0.87469750
 C            2.17358631       -2.69689738        0.38069892
 C            0.12857529       -2.67414494        1.72794771
 C            0.87925445       -3.27055619        0.71763359
 C           -1.81121352       -1.33306232        2.34212385
 C           -1.15159385       -2.16483288        1.43246317
 C           -1.96450789        0.98798882        2.27364937
 C           -2.61319393       -0.23615244        1.83610798
 C           -0.22475899        2.41615529        1.41171081
 C           -1.51966356        1.89035131        1.31029319
 C            0.20047150        3.37470402        0.49832600
 C            2.37433299        2.19318902        0.49469191
 C            1.55925837        3.28699407        0.01190257
 C            2.74648952       -0.04412774       -0.42110010
 C            2.68360609        1.33041840       -0.63863397
 C            2.08004305       -2.28118277       -1.00314020
 C            2.08473364       -0.91518212       -1.29853100
 C            0.24217710       -3.63931264       -0.52655797
 C            1.09452570       -3.15668212       -1.60459009
 C           -1.70008215       -2.31666810        0.14921107
 C           -1.09325747       -3.15367840       -0.78324520
 C           -3.07886335       -0.30650583        0.53499134
 C           -2.70479490       -1.44791335       -0.28265595
 C           -2.20377922        1.95465825        0.09252329
 C           -2.98953356        0.87381679       -0.30869047
 C           -0.64272358        3.69378860       -0.63809316
 C           -1.84146692        2.90806462       -0.85412029
 C            1.49945525        3.17655110       -1.43396080
 C            1.95681499        1.83945672       -1.78267457
 C            0.17518095        3.59792004       -1.84053384
 C            1.26240200       -0.40398881       -2.32177471
 C            1.12109145        0.97726652       -2.48510517
 C            0.23584494       -2.62808321       -2.63554593
 C           -1.13954908       -2.79464187       -2.19048142
 C            0.38828138       -1.24195613       -3.02003339
 C           -2.74184838       -1.02054856       -1.67546039
 C           -2.93598489        0.42143880       -1.69139626
 C           -1.87166846       -1.60359880       -2.58830067
 C           -0.94385135       -0.75967153       -3.32799551
 C           -1.87294733        2.54758488       -2.26156950
 C           -0.54151498        2.77874396       -2.79486342
 C           -0.00201851        1.47882238       -3.15209541
 C           -2.26019952        1.19428512       -2.62825677
 C           -1.14643300        0.61118074       -3.36523600
