56
Modified xyz file
 C            1.48318371       -0.17499155        4.19132592
 C            0.63056384       -1.35198960        4.19191904
 C            1.15228400       -2.27863596        3.20466477
 C            2.52580693       -0.38256329        3.20370907
 C            2.39928704       -1.73670089        2.69354299
 C            2.47910206        0.72314651        2.25784931
 C            0.68395065        0.95234581        3.74726148
 C            1.34935648        1.56491219        2.60778555
 C           -0.68993985       -0.94423752        3.74822527
 C           -0.68189286        0.49574913        3.56682563
 C            0.08664131       -2.57950434        2.25951233
 C           -1.06515431       -1.76818275        2.60947896
 C            0.40940296       -2.72606254        0.91674674
 C            2.70090210       -1.95586674        1.35871146
 C            1.75504213       -2.69795064        0.54386809
 C            2.71834840        0.46126193        0.91513984
 C            3.11084568       -0.82636988        0.54292870
 C            2.16501211        1.30524650       -0.04866196
 C            0.55090146        2.07240622        1.58622256
 C            1.03768034        2.08116984        0.27389595
 C           -1.38702456        1.00598913        2.48710229
 C           -0.82785072        2.07222780        1.78551490
 C           -1.79677359       -1.16839161        1.58787526
 C           -2.22621699        0.14188257        1.78649709
 C           -0.56546155       -2.46398363       -0.04676471
 C           -1.65400564       -1.63451676        0.27578672
 C           -0.25059908       -2.72492919       -1.37735407
 C            2.10729852       -2.42761785       -0.84183409
 C            2.96311030       -1.24624088       -0.84242633
 C            1.12510226       -2.56382930       -1.81239043
 C            2.51046440        1.08653099       -1.37927987
 C            2.78595835       -0.27114539       -1.81354626
 C            1.76737857        1.74129227       -2.43128337
 C            0.24245148        2.64862294       -0.73562874
 C            0.56999327        2.46848354       -2.07917117
 C           -1.63030667        2.71216101        0.85373376
 C           -1.04743638        3.07851864       -0.42528438
 C           -3.08483036        0.70430357        0.85474431
 C           -2.92788467        2.12124463        0.58245992
 C           -2.44149239       -1.05639442       -0.73376459
 C           -3.25187155        0.03545091       -0.42375938
 C           -1.10483479       -2.22363651       -2.42927719
 C           -2.16884442       -1.31233712       -2.07726093
 C            1.11704378       -1.66961642       -2.95902622
 C            1.93321198       -0.54293826       -2.95959243
 C            1.40394504        0.73216505       -3.41685783
 C           -0.25971883       -1.56444730       -3.41570200
 C           -0.46885792        2.08181122       -3.02413418
 C           -2.12565711       -0.20532994       -3.02296544
 C           -0.01838142        0.87011145       -3.68878116
 C           -0.83424141       -0.25614613       -3.68820671
 C           -2.08887713        2.95632264       -1.43493752
 C           -3.25253504        2.35574463       -0.81050977
 C           -3.46079446        1.06245568       -1.43398661
 C           -1.79818821        2.20262220       -2.64077072
 C           -2.65459723        1.02037742       -2.64016984
