56
Modified xyz file
 C            1.17640608       -0.00134048        4.40217715
 C            0.43554011       -1.16585822        3.95422974
 C            1.33420628       -2.00036096        3.19207441
 C            2.47841601       -0.03438156        3.75637125
 C            2.55026890       -1.23970237        2.95461937
 C            2.66629650        1.23996284        3.10163241
 C            0.47584699        1.18133770        3.92340603
 C            1.44502213        2.02126672        3.27103970
 C           -0.76554472       -0.69727780        3.29556104
 C           -0.67597269        0.74418277        3.16137968
 C           -1.25977979       -1.39159359        2.20337028
 C            0.86978926       -2.48774684        1.90882866
 C           -0.47470733       -2.37018892        1.57239964
 C            2.72470193       -1.13274534        1.51170132
 C            1.83467925       -2.09773738        0.90182425
 C            2.97956967        1.27051122        1.68372151
 C            2.87574593        0.11057506        0.90474588
 C            1.11965181        2.57012812        1.96858876
 C            2.34446944        2.47772568        1.20096486
 C           -0.96321842        1.30741233        1.91015781
 C           -0.08610902        2.24268859        1.33207878
 C           -2.17041183       -0.70931537        1.41092946
 C           -1.87005128        0.62372712        1.09177695
 C           -2.88685261       -1.47917533        0.51220450
 C           -0.81991413       -2.70035711        0.26119227
 C           -2.17105769       -2.59768432       -0.06205806
 C            1.34790720       -1.86029516       -0.37709149
 C            0.14481369       -2.46889553       -0.73463173
 C            2.56616816        0.24616704       -0.45345158
 C            1.77874864       -0.73322784       -1.09272113
 C            2.24472144        2.64142200       -0.16089100
 C            2.64948462        1.52773114       -0.99428089
 C           -0.18875146        2.53465854       -0.03584126
 C            0.95351850        3.01900642       -0.68596073
 C           -2.14025984        1.11093893       -0.19201519
 C           -1.24984797        2.00794374       -0.78742872
 C           -3.59756367       -0.81674550       -0.55404310
 C           -3.11332610        0.48041344       -0.97409533
 C           -2.59884720       -2.74574214       -1.43661456
 C           -3.58346253       -1.70797064       -1.70139507
 C           -0.21317295       -2.45021474       -2.07731114
 C           -1.59146137       -2.68323123       -2.47036644
 C            1.27931388       -0.51870764       -2.39268661
 C            0.31845475       -1.39190375       -2.91507777
 C            2.08697383        1.79625859       -2.29880470
 C            1.09918358        2.85482252       -2.11533134
 C            1.43130346        0.72422520       -3.00729061
 C           -1.28281506        2.18223967       -2.17597856
 C           -0.06504681        2.50337332       -2.88638550
 C            0.28247838        1.32496665       -3.66008203
 C           -2.96190022        0.43815031       -2.42118173
 C           -3.12296783       -0.94407327       -2.84406855
 C           -1.97352754       -1.63289546       -3.39947363
 C           -0.79029005       -0.84903946       -3.69486847
 C           -1.95631108        1.19675182       -2.99862135
 C           -0.92050927        0.52982043       -3.78692743
