56
Modified xyz file
 C            1.50959942        0.04684203        3.77480247
 C            0.71892616       -1.16435209        3.67317462
 C            1.30604791       -2.00097423        2.64247720
 C            2.52685484       -0.00002064        2.73802400
 C            2.39038296       -1.24617404        2.02642702
 C            2.43226990        1.21787809        1.97750490
 C            0.63275557        1.16743822        3.47994824
 C            1.26323615        1.95068176        2.44340049
 C           -0.66862778       -0.77589689        3.52975027
 C           -0.69200964        0.64689666        3.22309909
 C           -1.50125919       -1.61742523        2.81286666
 C            0.46258521       -2.75136510        1.82338588
 C           -0.91559701       -2.72447596        2.06465980
 C            0.94278034       -3.13989099        0.57043312
 C            2.50410706       -1.25919357        0.63938241
 C            2.07197569       -2.41813261        0.00527473
 C            2.66192771        1.18544944        0.60735955
 C            2.57927613       -0.04503873       -0.08170341
 C            2.33694826        2.35714976       -0.06197228
 C            0.46909054        2.56631932        1.48210308
 C            1.14162574        3.06266412        0.36715741
 C           -1.37745429        1.08923414        2.09189753
 C           -0.87211668        2.17295084        1.34850647
 C           -2.52513859       -1.03118494        1.96919592
 C           -2.42300857        0.30441176        1.58552190
 C           -1.84410339       -3.05350977        0.99569498
 C           -2.86682840       -2.02063705        0.96261850
 C            0.02249372       -3.44359169       -0.51956122
 C           -1.33442356       -3.21972345       -0.34900149
 C            1.94899947       -2.45009959       -1.43035119
 C            0.64540498       -3.01007238       -1.75512087
 C            2.49803904       -0.05844338       -1.49299984
 C            2.08457174       -1.21150555       -2.15755818
 C            2.39111228        2.39334758       -1.49988081
 C            2.42445402        1.13708501       -2.20816271
 C            0.40587687        3.45643473       -0.82062090
 C            1.23960331        3.14898993       -1.97189088
 C           -1.63131174        2.70625817        0.30754262
 C           -0.96223864        3.22388364       -0.87436424
 C           -3.10600734        0.70769938        0.44219743
 C           -2.80943636        1.99704972       -0.14385780
 C           -3.02518463       -1.58280309       -0.41308804
 C           -2.01100621       -2.25531112       -1.20957391
 C           -3.27863707       -0.24128072       -0.64948721
 C           -0.04849662       -2.04114257       -2.58490302
 C            0.96275151       -1.12988478       -3.08119711
 C           -1.27829224       -1.53863858       -2.16102236
 C            1.46990313        1.23452610       -3.30135377
 C            0.66316032        2.42352457       -3.08663809
 C            0.57177796        0.11798005       -3.53375153
 C           -1.54966616        2.57161615       -2.04096435
 C           -2.69167323        1.80668387       -1.58182681
 C           -2.72044187        0.37685847       -1.83535539
 C           -1.63967588       -0.22309402       -2.48204901
 C           -0.72563437        2.01099192       -3.01002726
 C           -0.78026850        0.57301735       -3.24612255
