56
Modified xyz file
 C            1.46141548        0.03855987        4.27969754
 C            0.71085579       -1.18604106        4.07580551
 C            1.63034582       -2.13671907        3.49295251
 C            2.61055643       -0.00973080        3.38923083
 C            2.75375535       -1.37718397        2.95203350
 C            2.42753515        1.02489347        2.38856930
 C            0.62650219        1.13864572        3.84121001
 C            1.39776153        1.91718736        2.89229645
 C           -0.50682396       -0.84844240        3.34845768
 C           -0.64357556        0.59570202        3.38822329
 C           -0.83265755       -1.53034357        2.17150372
 C            1.14028824       -2.98641860        2.43094833
 C           -0.16856105       -2.71292498        1.85745685
 C            2.80939145       -1.64986225        1.52975141
 C            2.09404056       -2.88716132        1.34074500
 C            2.43099928        0.70449630        1.02710911
 C            2.59462236       -0.62772407        0.60155632
 C            1.95678628        1.66401880        0.12658139
 C            0.68377851        2.66458922        1.97200188
 C            1.13668913        2.68876276        0.59302415
 C           -1.26752979        1.22915086        2.32350703
 C           -0.75118419        2.45395904        1.90398454
 C           -1.56523331       -0.87006216        1.17503281
 C           -1.96539353        0.45435409        1.39711457
 C           -1.73077275       -1.46010077       -0.09570229
 C           -0.06715289       -3.10033286        0.47131895
 C            1.34326981       -3.03203549        0.11797871
 C           -0.96149893       -2.58128043       -0.45266327
 C            2.25613500       -0.98021361       -0.71464527
 C            1.67499824       -2.23554496       -0.97122439
 C            1.97663887        1.39403111       -1.23558707
 C            2.18970034        0.02836127       -1.67456981
 C            0.97100429        1.99602714       -2.10361696
 C           -0.00380587        3.10911876       -0.20842365
 C           -1.19020813        2.99493996        0.63446390
 C           -0.08103860        2.72757509       -1.54734777
 C           -2.72227760        1.11604556        0.43695683
 C           -2.34676048        2.47780082        0.07656782
 C           -2.47555657       -0.79060424       -1.08525691
 C           -3.08805041        0.42368130       -0.78161067
 C           -2.40037624       -1.19985063       -2.42266566
 C           -0.55544786       -2.70174240       -1.77391701
 C            0.82966983       -2.38026376       -2.06635654
 C           -1.37459573       -2.13650640       -2.81270660
 C            1.43415984       -0.16952433       -2.90198656
 C            0.72984067        1.07251073       -3.20289548
 C            0.82547803       -1.39463532       -3.12690974
 C           -0.48922722       -1.45124952       -3.74391910
 C           -2.45099940       -0.21239523       -3.48810939
 C           -0.51208473        1.05016636       -3.83071669
 C           -1.14753132       -0.21948259       -4.13285003
 C           -1.32876835        2.74217456       -2.17369353
 C           -2.51971725        2.61402601       -1.35337079
 C           -3.23419110        1.44059161       -1.81342428
 C           -1.55374233        1.94821092       -3.36899652
 C           -2.76145576        1.15879607       -3.15291397
