56
Modified xyz file
 C            1.37487110       -0.33436807        4.53785154
 C            0.49135803       -1.45539427        4.27993515
 C            1.07324763       -2.24035936        3.20530574
 C            2.49674894       -0.43569557        3.61931320
 C            2.21999201       -1.51820640        2.69467235
 C            2.71847895        0.88420602        3.08141226
 C            0.65653388        0.88210020        4.19559089
 C            1.57176582        1.71043905        3.44969348
 C           -0.76105398       -0.92193741        3.77659110
 C           -0.59517582        0.50171760        3.56719084
 C            0.00617616       -2.54753831        2.27176213
 C           -1.13436422       -1.72513924        2.63297164
 C            0.31106709       -2.62699952        0.91510013
 C            2.28097265       -1.29811456        1.31879865
 C            1.56116462       -2.15775603        0.48805801
 C            2.89240125        1.02942400        1.64883371
 C            2.72895766       -0.06949934        0.80243414
 C            1.10117613        2.33139243        2.22828657
 C            2.21365827        2.25813881        1.30478257
 C           -0.93713135        1.02290576        2.31618153
 C           -0.17928577        2.05054567        1.74017464
 C           -1.80387352       -1.11220754        1.58603793
 C           -1.80163354        0.28734498        1.50160293
 C           -0.76082154       -2.56988002        0.01918133
 C           -1.88520652       -1.82736485        0.39830759
 C           -0.50519536       -2.81779607       -1.32697060
 C            1.83597687       -2.12497818       -0.87215870
 C            0.85730935       -2.67067926       -1.79413405
 C            2.59047509        0.18070158       -0.57009050
 C            2.33229021       -0.88156353       -1.43290293
 C            1.94431557        2.49331464       -0.02669473
 C            2.32487635        1.48238818       -1.00124978
 C           -0.46062261        2.43077020        0.42458917
 C            0.59360676        2.87821167       -0.37474447
 C           -2.30566230        0.87580039        0.33977118
 C           -1.63189853        1.98381845       -0.19628262
 C           -2.76207025       -1.34052778       -0.55966322
 C           -3.09126370        0.06726918       -0.48500059
 C           -1.38345283       -2.27417543       -2.34919773
 C           -2.57146788       -1.66997770       -1.95893008
 C            0.83529738       -1.82597500       -2.97438687
 C            1.62638693       -0.64343116       -2.68668568
 C           -0.54743874       -1.65527492       -3.37512541
 C            1.48181382        1.70084282       -2.17137655
 C            0.50540872        2.72550350       -1.81021838
 C            1.08947414        0.61497303       -2.95443868
 C           -1.88062562        2.39815387       -1.51150780
 C           -0.75128722        2.68327704       -2.38260180
 C           -3.45956449        0.50269350       -1.81524914
 C           -3.11323200       -0.56941087       -2.73998788
 C           -2.88690097        1.72848283       -2.31535058
 C           -0.92459578       -0.43868500       -3.92960431
 C           -0.06118987        0.72146616       -3.74278871
 C           -0.91818500        1.88227833       -3.57544337
 C           -2.30210502        0.00187165       -3.79584926
 C           -2.30049695        1.44290382       -3.61579596
