56
Modified xyz file
 C            1.52567851        0.12718786        4.07281512
 C            0.72457680       -1.06396728        3.86703985
 C            1.52689200       -1.98811522        3.09875170
 C            2.62957966        0.07916846        3.12616428
 C            2.66300349       -1.25067654        2.56407642
 C            2.48236267        1.20874564        2.22831700
 C            0.70751360        1.27265062        3.72380207
 C            1.47744959        2.08602834        2.80521139
 C           -0.56168111       -0.65762585        3.32412337
 C           -0.59214599        0.79467637        3.27784528
 C           -1.10854143       -1.36534588        2.25996525
 C            0.89489022       -2.66383329        1.98620409
 C           -0.47371466       -2.52793584        1.79194885
 C            2.63123088       -1.39737759        1.12152388
 C            1.75196530       -2.50746940        0.82488016
 C            2.48846459        1.01680162        0.84339965
 C            2.56705882       -0.27890332        0.29955210
 C            2.06852922        2.07783851        0.03242726
 C            0.76916384        2.90243914        1.94262533
 C            1.26847669        3.07546795        0.59163688
 C           -1.18606728        1.43497277        2.18764353
 C           -0.66161530        2.67221505        1.80782444
 C           -2.02963567       -0.71071873        1.44198155
 C           -1.92832360        0.67894614        1.26294867
 C           -2.81148753       -1.47808341        0.58626910
 C           -0.97490272       -3.13529777        0.64815253
 C           -2.29900073       -2.77112299        0.18895896
 C            1.15211757       -2.56863717       -0.43117755
 C           -0.10075562       -3.18467263       -0.51500178
 C            2.23247561       -0.47862005       -1.03794631
 C            1.51585004       -1.63260156       -1.40769516
 C            2.10294527        1.93112851       -1.35418777
 C            2.33114689        0.60901941       -1.89875354
 C            1.07559013        2.56513142       -2.17489912
 C            0.15626136        3.60234395       -0.17620201
 C           -1.05916867        3.26212556        0.54850842
 C           -0.00258962        3.16965489       -1.54996465
 C           -2.42600651        1.28327292        0.09156137
 C           -1.89559246        2.49163290       -0.33849847
 C           -1.32221244        2.56252223       -1.67370873
 C           -3.38965522       -0.86289897       -0.58657211
 C           -3.03871836        0.50572802       -0.88220731
 C           -2.29807530       -2.82540272       -1.26338643
 C           -0.92406840       -3.01172265       -1.70216066
 C           -3.04007031       -1.67579733       -1.74224694
 C            0.91320013       -1.72251314       -2.66390707
 C           -0.43165228       -2.25798613       -2.76058674
 C            1.72280410        0.56601821       -3.21202002
 C            0.81256890        1.69545733       -3.30355785
 C            0.99207307       -0.61823248       -3.59825207
 C           -1.52183593        1.49045655       -2.54832569
 C           -2.51934274        0.55970913       -2.24169840
 C           -2.42418726       -0.80890136       -2.73068287
 C           -1.26291800       -1.22438109       -3.36918781
 C           -0.52782919        1.16277221       -3.47532387
 C           -0.37207464       -0.21527129       -3.90800757
