56
Modified xyz file
 C            1.60377067        0.17942066        3.80763154
 C            0.77024415       -1.00770583        3.76354381
 C            1.28891177       -1.88832559        2.73239456
 C            2.56329534        0.08872042        2.72156339
 C            2.37663244       -1.18619148        2.06198160
 C            2.44805500        1.29204762        1.92372340
 C            0.75045224        1.32178378        3.53798583
 C            1.38567211        2.10610956        2.49888594
 C           -0.61084708       -0.57899619        3.66226922
 C           -0.59586124        0.82974021        3.29872539
 C           -1.49651774       -1.41667912        3.00972916
 C            0.38220020       -2.62336534        1.96810520
 C           -0.97013794       -2.58639360        2.31903997
 C            0.75651313       -3.00812186        0.67889809
 C            2.45216368       -1.23868373        0.67585911
 C            1.86712864       -2.32591785        0.03362392
 C            2.53208460        1.18807898        0.53667904
 C            2.72106188       -0.07280273       -0.05230820
 C            2.04960185        2.24888822       -0.23550510
 C            0.56662448        2.81094339        1.63207175
 C            1.04096682        3.05581491        0.28497838
 C           -1.27657703        1.26357177        2.15636083
 C           -0.83483014        2.41978066        1.51819959
 C           -2.46108085       -0.82584348        2.10661862
 C           -2.14964661        0.39117916        1.49426404
 C           -1.98396701       -2.98579200        1.35670255
 C           -2.98336989       -1.92657934        1.32351813
 C           -0.24850415       -3.27143436       -0.34395889
 C           -1.59458175       -3.26718186       -0.01127169
 C            1.58692325       -2.26336252       -1.39178817
 C            0.19355537       -2.63198261       -1.57619528
 C            2.83630852       -0.16793061       -1.43743017
 C            2.10665274       -1.21576324       -2.13197997
 C            2.26013254        2.24959117       -1.60995460
 C            2.73157947        1.03511365       -2.24259152
 C            1.24787209        2.83321634       -2.47804673
 C           -0.13274968        3.32759255       -0.52204549
 C           -1.25610450        2.69341342        0.15692426
 C           -0.02632774        3.23706814       -1.90291100
 C           -2.52498980        0.63651590        0.15889190
 C           -2.03451139        1.75954942       -0.51842007
 C           -3.33190951       -1.68894457       -0.05440976
 C           -2.53382223       -2.58444521       -0.88080812
 C           -3.16095934       -0.35603311       -0.59323003
 C           -0.66398376       -1.77774143       -2.27407818
 C           -2.03154338       -1.79908755       -1.99802120
 C           -2.75952543       -0.54396791       -1.97187414
 C            1.25193350       -0.56177764       -3.10454748
 C            1.84373024        0.74202986       -3.35763033
 C            0.98069126        1.88872248       -3.55140581
 C           -0.13484939       -0.70379711       -2.99924238
 C           -1.07811491        2.56529709       -2.64251540
 C           -2.06651534        1.78396270       -1.91475445
 C           -2.22073869        0.53657723       -2.64135157
 C           -0.44973474        1.67588852       -3.60929758
 C           -0.98245671        0.34423006       -3.37159590
