56
Modified xyz file
 C            1.27879762       -0.04474109        3.68746587
 C            2.48676318       -0.32996289        2.95283409
 C            2.44361790       -1.72380252        2.54083930
 C            0.42859428       -1.22644790        3.63296519
 C            1.14278798       -2.26224877        2.91154469
 C           -0.87264287       -0.80242134        3.14485001
 C            0.47044870        1.08570225        3.27564396
 C           -0.91347337        0.63936529        3.29061743
 C            0.89889346        1.93036121        2.24664167
 C            2.78609463        0.46836141        1.78254155
 C            2.05222851        1.62208671        1.50130301
 C            2.87639964       -1.79543559        1.15116666
 C            3.10059244       -0.43743864        0.68838332
 C            2.26955771       -2.70683196        0.30182631
 C            0.44889339       -3.03114490        1.98665406
 C            1.15197344       -3.48991187        0.80284743
 C           -1.39103135       -1.38754704        1.98985040
 C           -0.88555723       -2.61305678        1.56822723
 C           -2.16896134       -0.61990131        1.11750479
 C           -1.84340676        1.35320901        2.55521862
 C           -2.58145054        0.65587782        1.51495230
 C           -0.02050396        2.85910352        1.75667475
 C           -1.43506278        2.63294012        2.00514096
 C            0.10667954        3.37423845        0.40552386
 C            2.23266811        2.18043840        0.23570433
 C            1.26515591        3.11838934       -0.30510044
 C            2.74385621       -0.05847911       -0.60427449
 C            2.66206678        1.30864312       -0.84745789
 C            1.94768884       -2.30273870       -1.05730073
 C            2.04912134       -0.95914546       -1.43006747
 C            0.18142805       -3.60968282       -0.26649781
 C           -1.07036413       -3.02555950        0.18968332
 C            0.78660742       -3.07512855       -1.47206517
 C           -2.38470448       -1.04044932       -0.20338942
 C           -1.76688843       -2.20272178       -0.68931317
 C           -3.06763639       -0.19466818       -1.08168212
 C           -2.95136165        1.64230867        0.51312900
 C           -2.14932010        2.82714998        0.75558987
 C           -1.18663755        3.23339715       -0.25299597
 C           -3.12538914        1.22481199       -0.79452088
 C           -1.26645262        2.66866800       -1.52641367
 C           -2.37998483        1.89275163       -1.85311526
 C            1.17469060        2.88835311       -1.73541404
 C            2.06226253        1.78453542       -2.07127720
 C           -0.12320849        2.60589633       -2.32421932
 C            1.32112855       -0.50377326       -2.54261049
 C            1.31810248        0.84757727       -2.88098153
 C            0.06403006        1.49226158       -3.24231233
 C           -0.06048840       -2.52908418       -2.41915574
 C           -1.44612025       -2.30558781       -2.04509381
 C            0.35772905       -1.33063650       -3.11821387
 C           -2.84903753       -0.30739295       -2.51147718
 C           -2.30893023        0.96446365       -2.96988468
 C           -1.02406158        0.70611413       -3.59487333
 C           -1.98480981       -1.35680845       -2.99774226
 C           -0.85137257       -0.73425637       -3.66787371
