56
Modified xyz file
 C            1.54971652        0.04275855        3.80801182
 C            0.73451511       -1.15172913        3.68811448
 C            1.31351318       -1.98633790        2.64852148
 C            2.63673567       -0.07123784        2.85316950
 C            2.60341138       -1.41177856        2.29750355
 C            2.55835297        1.05326731        1.93405416
 C            0.72814162        1.16934402        3.40809070
 C            1.35994215        1.80496689        2.26620407
 C           -0.64633337       -0.73097012        3.53763031
 C           -0.63826348        0.69874773        3.26099529
 C           -1.48825950       -1.53844724        2.78925824
 C            0.47214055       -2.47947449        1.64869495
 C           -0.89262451       -2.54440810        1.91983337
 C            0.92734259       -2.53101826        0.32283130
 C            3.07346415       -1.57955498        1.00707621
 C            2.29071764       -2.37742958        0.08344860
 C            2.86807782        0.82931826        0.59285839
 C            3.45890832       -0.39425822        0.26283897
 C            2.19865453        1.56910816       -0.39420249
 C            0.55098579        2.24844159        1.23232266
 C            1.09680895        2.35845907       -0.04450709
 C           -1.39225636        1.18653122        2.19529740
 C           -0.83612841        2.17870838        1.38072748
 C           -2.55751075       -0.91621459        2.03248197
 C           -2.48292147        0.44179506        1.73087466
 C           -1.82176045       -2.79011749        0.83738276
 C           -2.92151717       -1.84812910        0.98035907
 C            0.01804333       -2.46493191       -0.74810281
 C           -1.33690817       -2.69745667       -0.52193978
 C            0.41642218       -1.96559206       -1.99530794
 C            2.74799803       -2.02305053       -1.24679792
 C            3.54703264       -0.80964916       -1.12191984
 C            1.76576198       -1.79074014       -2.28233897
 C            2.47688940        1.34634648       -1.74530240
 C            3.11769005        0.11194548       -2.14925454
 C            2.17536715       -0.59482800       -2.99909027
 C            1.45206151        1.61895222       -2.73840418
 C            1.15281329        0.35658013       -3.40280123
 C            0.34968219        2.98224735       -1.04190638
 C            0.41508843        2.47609051       -2.40113440
 C           -1.64277431        2.82784289        0.45436552
 C           -1.03787848        3.31850892       -0.77076607
 C           -3.22959559        0.92222160        0.65642952
 C           -2.91416304        2.22724608        0.10635816
 C           -3.23466067       -1.32264109       -0.33648859
 C           -2.32416101       -1.95031020       -1.28378789
 C           -3.52539510        0.03159351       -0.45851254
 C           -0.51807569       -1.33523755       -2.81713515
 C           -0.16468025       -0.08179424       -3.46700110
 C           -1.90945029       -1.25090650       -2.40877093
 C           -0.94479674        2.15168203       -2.80264967
 C           -1.83841036        2.83993251       -1.88797724
 C           -2.98152583        2.13131613       -1.34356774
 C           -3.18073790        0.73337362       -1.68385337
 C           -1.24579863        0.85952352       -3.22405837
 C           -2.34969159        0.12139443       -2.61815571
