56
Modified xyz file
 C            1.30885702       -0.06207773        3.62696197
 C            2.57841737       -0.31328957        2.97157185
 C            2.50801394       -1.63249527        2.36388609
 C            0.46834468       -1.23254985        3.42843477
 C            1.14369607       -2.11559275        2.50616415
 C           -0.85687875       -0.77363937        3.08108519
 C            0.53554917        1.10901302        3.24951125
 C           -0.83075098        0.67984751        3.01001595
 C            1.09711846        2.06864634        2.42111304
 C            3.04713599        0.61650998        1.95983402
 C            2.38249483        1.82527754        1.77360716
 C            3.08383042       -1.54644172        1.03264486
 C            3.46944994       -0.16084298        0.80470432
 C            2.49113686       -2.27270854        0.00713501
 C            0.46182506       -2.55227033        1.37381562
 C            1.20176402       -2.90316155        0.24389381
 C           -1.58709641       -1.45783177        2.11790745
 C           -0.92374687       -2.36074893        1.26485334
 C           -2.74904095       -0.82623895        1.68576025
 C           -1.61370973        1.31162777        2.04042007
 C           -2.74196194        0.62397312        1.58613529
 C            0.24738278        2.76531410        1.47347958
 C           -1.06749283        2.34395708        1.26332335
 C            2.33420376        2.42586345        0.44975009
 C            1.07517157        3.14447944        0.33715398
 C            3.36866596        0.38636339       -0.47097976
 C            2.83305792        1.72868908       -0.64583842
 C            2.47301457       -1.73650780       -1.34474116
 C            2.89566537       -0.43191390       -1.57762849
 C            0.54178571       -3.04756267       -1.04182480
 C            1.27941888       -2.24384207       -2.00647052
 C           -1.58302598       -2.89160655        0.15199542
 C           -0.84438890       -3.08137095       -1.08397856
 C           -3.49637465       -1.35429168        0.56592987
 C           -2.90412038       -2.41621947       -0.21348777
 C           -3.36926340        0.98316531        0.32444777
 C           -3.78588851       -0.24628667       -0.32981607
 C           -1.73652449        2.78643677        0.12231164
 C           -2.80051505        1.98217983       -0.44658441
 C            0.48232903        3.30850881       -0.90806632
 C           -0.96663433        3.32117115       -0.98925139
 C            2.12084562        1.76610281       -1.91447825
 C            2.14378415        0.42588359       -2.48121980
 C            0.98532401        2.55894152       -2.05065127
 C            0.59162085       -1.44065977       -2.91004235
 C            1.02282451       -0.06990387       -3.13911927
 C           -1.55278536       -2.36179809       -2.13251303
 C           -2.84347619       -1.97120897       -1.59776847
 C           -3.22423591       -0.56944882       -1.62960841
 C           -0.86254226       -1.46410187       -2.93716496
 C           -2.42811045        1.68540274       -1.82251638
 C           -1.35818610        2.59671794       -2.18845773
 C           -0.15830494        2.06499578       -2.80357546
 C           -0.16607784        0.75781325       -3.27373552
 C           -2.39047541        0.35834788       -2.25136682
 C           -1.33111994       -0.08861673       -3.04696177
