56
Modified xyz file
 C            1.14445800       -0.16021646        3.97706525
 C            2.37370899       -0.34526122        3.22989144
 C            2.22993186       -1.55837250        2.43503927
 C            0.31266505       -1.32642140        3.73389039
 C            0.86937246       -2.02642951        2.58867780
 C           -1.05991144       -0.87309149        3.66241353
 C            0.32917107        1.01722592        3.72698559
 C           -1.05311209        0.58290158        3.66685458
 C            0.77025802        1.98735836        2.83437607
 C            2.82649952        0.70601112        2.33685878
 C            2.08686375        1.87986252        2.21812851
 C            2.71615301       -1.26807675        1.10266701
 C            3.32042842        0.05145657        1.13783085
 C            1.94628165       -1.61743231       -0.00258301
 C            0.08035035       -2.20867682        1.45268575
 C            0.66949349       -2.17267723        0.17790114
 C           -1.86058870       -1.29334076        2.53155035
 C           -1.31219697       -2.14151567        1.57591179
 C           -1.89377560        1.03033664        2.56619892
 C           -2.60034961       -0.13664554        2.06273080
 C           -0.14685876        2.52999992        1.83969922
 C           -1.41261339        1.97080030        1.66081440
 C            2.02785411        2.55856720        0.93324075
 C            0.63855493        2.92121743        0.67817694
 C            3.39499846        0.76824585       -0.04799363
 C            2.81629776        2.10451944       -0.11547664
 C            2.29990268       -1.08399661       -1.24320795
 C            3.05119308        0.09182882       -1.28726580
 C            1.59364689       -1.47427532       -2.37714537
 C           -0.09026487       -2.53099089       -0.93983441
 C            0.43473963       -2.33222258       -2.21771763
 C           -2.09204488       -2.38335292        0.45563077
 C           -1.45074848       -2.78732966       -0.77719909
 C           -3.05344439       -0.15128541        0.74541193
 C           -3.09538781       -1.38876436        0.10388907
 C           -2.02820414        2.06874250        0.41777546
 C           -2.93068130        1.01232205       -0.01878147
 C            0.09788090        2.77837842       -0.60024648
 C           -1.25914054        2.50830568       -0.73750819
 C            2.34695230        2.31001766       -1.47352078
 C            2.68027729        1.12114912       -2.23711921
 C            0.93943788        2.59032452       -1.69382079
 C            1.27109521       -0.47841990       -3.39552930
 C            1.58271402        0.84770521       -3.14142780
 C            0.49647110        1.76288498       -2.80751665
 C           -0.45047162       -2.05873035       -3.33924730
 C           -0.05677396       -0.77567475       -3.88976858
 C           -2.38896859       -2.47316455       -1.84349966
 C           -3.29465326       -1.45718916       -1.33186537
 C           -1.87977215       -2.00608461       -3.11396946
 C           -2.85118562        0.94116335       -1.47373787
 C           -1.73551679        1.77549549       -1.90205681
 C           -0.82276981        1.30645300       -2.84840395
 C           -1.12156012        0.16537447       -3.59514519
 C           -3.10473064       -0.25864338       -2.12358275
 C           -2.30192634       -0.62036602       -3.27712523
