56
Modified xyz file
 C            1.29331158       -0.14573455        3.73167875
 C            2.53364219       -0.43056902        3.03603170
 C            2.47107719       -1.79834069        2.55189696
 C            0.43953664       -1.31793145        3.62498107
 C            1.17401265       -2.34894847        2.91848465
 C           -0.84571481       -0.88942664        3.10376645
 C            0.51651373        1.01302871        3.32596418
 C           -0.82712492        0.56340202        3.00466064
 C            1.10615896        1.97925714        2.52491354
 C            2.92008658        0.41971330        1.92415674
 C            2.33491506        1.67150501        1.79547146
 C            2.87326632       -1.79828624        1.15257965
 C            3.03674537       -0.41475132        0.73900949
 C            2.27142426       -2.69495157        0.28421345
 C            0.49932508       -3.13686163        1.99612999
 C            1.19519775       -3.53462821        0.78484825
 C           -1.46786517       -1.62953995        2.10009738
 C           -0.87140346       -2.79921097        1.62419139
 C           -2.45226887       -1.01015797        1.33627564
 C           -1.54114924        1.17828875        1.97642122
 C           -2.54313733        0.44152310        1.34782842
 C            0.26215713        2.75923342        1.63758511
 C           -1.04082309        2.33795577        1.36855970
 C            2.19150462        2.23585927        0.46583594
 C            1.10798290        3.19935884        0.54113020
 C            2.48382434        0.03044596       -0.46380601
 C            2.28376782        1.40167380       -0.64797259
 C            1.89209786       -2.24756416       -1.04532080
 C            1.92517669       -0.88811804       -1.36433913
 C            0.21024166       -3.67052751       -0.27125040
 C           -1.06557248       -3.19470892        0.23482197
 C            0.75108322       -3.04670159       -1.46263039
 C           -2.70070689       -1.45831736       -0.02544111
 C           -1.86245167       -2.41402284       -0.59887877
 C           -3.07166812        0.86721990        0.06390514
 C           -3.15443811       -0.30550232       -0.79470693
 C           -1.70137131        2.88468844        0.26815274
 C           -2.67161339        2.08690561       -0.46179546
 C            0.51253009        3.62619328       -0.63635934
 C           -0.93870378        3.64955100       -0.70678522
 C            1.79908705        1.86431203       -1.86544729
 C            1.00706318        3.08539956       -1.89127185
 C            1.19518436       -0.43458810       -2.46875645
 C            1.19465716        0.92192695       -2.78645586
 C           -0.14308158       -2.49074808       -2.36083863
 C           -1.53253532       -2.33074813       -1.95347322
 C            0.22830731       -1.26396309       -3.03792057
 C           -2.83774330       -0.20213221       -2.14311625
 C           -2.09810071       -1.27491071       -2.77698954
 C           -1.00522192       -0.67832994       -3.53029502
 C           -2.37060893        2.20106118       -1.88146036
 C           -1.33415085        3.20865428       -2.03477051
 C           -0.13011456        2.86840853       -2.76879626
 C           -0.01120962        1.53644158       -3.33096967
 C           -2.33596843        1.05610389       -2.67382618
 C           -1.15513087        0.76211034       -3.47991798
