56
Modified xyz file
 C            1.44823963        0.06724087        4.13151794
 C            0.63762374       -1.10256245        3.84812268
 C            1.48166946       -2.02742205        3.13343203
 C            2.56678485        0.04870743        3.20248062
 C            2.66919365       -1.29599869        2.69861678
 C            2.36087163        1.12688234        2.25424721
 C            0.65265290        1.23482532        3.81290652
 C            1.42622861        2.04068960        2.88845284
 C           -0.58484177       -0.65227576        3.20959013
 C           -0.66075136        0.78883837        3.37448756
 C           -0.97761275       -1.20311777        1.99243686
 C            0.95028730       -2.67782137        1.95227193
 C           -0.29882971       -2.30853180        1.44632957
 C            2.76586698       -1.49299026        1.26751046
 C            2.05934965       -2.73159446        1.02730457
 C            2.21903146        0.84446296        0.88718715
 C            2.54091863       -0.42662766        0.38658735
 C            1.55993417        1.77292192        0.07233836
 C            0.71606085        2.89709574        2.07310116
 C            1.05057751        2.93005777        0.66503782
 C           -1.29374539        1.54523228        2.39117604
 C           -0.73051995        2.78950446        2.09675724
 C           -1.88354836       -0.49078460        1.20974937
 C           -2.04643743        0.88778025        1.40628846
 C           -2.45196991       -1.11641701        0.10650519
 C           -0.61535813       -2.73784476        0.14993483
 C           -1.77321105       -2.26311432       -0.46647642
 C            1.77445933       -3.04437513       -0.28152441
 C            0.39232760       -3.32204404       -0.62346350
 C            2.24717338       -0.74489560       -0.94462638
 C            2.20692292       -2.10224668       -1.28806950
 C            1.15295772        1.40620363       -1.21960586
 C            1.61811079        0.20075920       -1.76792478
 C            0.21201054        2.18713417       -1.92365703
 C           -0.05101658        3.62619301        0.03679470
 C           -1.19153905        3.53073694        0.94286237
 C           -0.49275917        3.18303213       -1.26005353
 C           -2.73609715        1.64470634        0.45486603
 C           -2.30948834        3.00466769        0.19128382
 C           -1.93982988        3.06708930       -1.20833706
 C           -2.99681429       -0.32091226       -0.98089618
 C           -3.07855954        1.05672574       -0.83117413
 C           -2.54975067        1.92960728       -1.87482440
 C           -1.84562245       -2.14302592       -1.91899597
 C           -2.51801479       -0.88834645       -2.23331956
 C            0.33697180       -3.24024121       -2.07430628
 C            1.53970814       -2.53090180       -2.49855894
 C           -0.79451370       -2.59681739       -2.70892356
 C            1.28974871       -0.13583906       -3.08621826
 C            1.14787425       -1.52917053       -3.45600442
 C           -0.25755862       -1.74803571       -3.75838970
 C           -0.42535318        1.64306469       -3.03094532
 C           -1.85058970        1.36472560       -2.93390885
 C           -2.01519824       -0.04669488       -3.22235593
 C            0.19191743        0.54596695       -3.73093300
 C           -0.84594243       -0.44420232       -3.98668466
