56
Modified xyz file
 C            1.51861274       -0.27149395        4.26854189
 C            0.64039374       -1.42415904        4.20364677
 C            1.13677336       -2.30902124        3.16205378
 C            2.59824835       -0.48593837        3.32174672
 C            2.37771131       -1.75508605        2.65556391
 C            2.70288066        0.70879640        2.50743030
 C            0.76656675        0.88992049        3.81703813
 C            1.53445341        1.53526689        2.78055844
 C           -0.66501907       -0.95440102        3.78172361
 C           -0.57482652        0.46499247        3.49510089
 C            0.04695802       -2.55375518        2.23003913
 C           -1.11298142       -1.81878463        2.70820988
 C            0.30435270       -2.56555350        0.85615425
 C            2.62662819       -1.82980957        1.29330598
 C            1.61640656       -2.39888413        0.40826583
 C            3.11803170        0.59632427        1.18447935
 C            3.19730567       -0.67838513        0.60634877
 C            2.87130508        1.69298680        0.36555499
 C            0.87328981        2.10611853        1.69676999
 C            1.67512035        2.48023200        0.62801082
 C           -1.16316163        0.90971778        2.31488325
 C           -0.47484444        1.78654100        1.45676399
 C           -1.94809041       -1.27200825        1.74866985
 C           -2.16075518        0.10788253        1.77122156
 C           -0.75558077       -2.31716901       -0.02511288
 C           -1.97774834       -1.89939132        0.51326499
 C           -0.48616481       -2.08702812       -1.37952409
 C            1.85682594       -1.86090920       -0.92148325
 C            2.91087989       -0.86311604       -0.81185168
 C            0.77634459       -1.62699636       -1.76483358
 C            3.00651455        1.55736082       -1.06988065
 C            2.88724672        0.23741551       -1.65439313
 C            1.07212353        2.81487883       -0.64294989
 C            2.00234090        2.40850573       -1.68136143
 C           -1.06961144        2.12336495        0.22556091
 C           -0.28460941        2.58736226       -0.84047198
 C           -2.95766999        0.65760709        0.77871773
 C           -2.39522496        1.74233284       -0.00660188
 C           -3.02335304       -1.55920286       -0.33379229
 C           -3.62160113       -0.25196501       -0.14033046
 C           -1.54569120       -2.01572498       -2.27774841
 C           -2.87579146       -1.77377925       -1.75852262
 C           -1.39791565       -1.21089707       -3.47269864
 C            0.90158387       -0.68513123       -2.79504343
 C            1.87505663        0.31106066       -2.69525838
 C            1.47163403        1.70579313       -2.82922442
 C           -0.17593758       -0.45093186       -3.64651785
 C           -0.74325062        2.47266412       -2.15757636
 C            0.15890471        1.96619612       -3.18760670
 C           -0.55445874        0.92760330       -3.90309204
 C           -2.89299589        1.60602031       -1.36795533
 C           -3.70385086        0.39805016       -1.43313949
 C           -3.41756496       -0.60847875       -2.44073634
 C           -2.51498126       -0.27665252       -3.52363379
 C           -2.06788349        1.94550872       -2.43096053
 C           -1.96292950        1.06414994       -3.58732418
