56
Modified xyz file
 C            1.22436276        0.02577369        4.46017567
 C            0.44357651       -1.14745525        4.10184725
 C            1.26338570       -1.99445557        3.27200386
 C            2.46032731       -0.01647723        3.69784350
 C            2.49523706       -1.27313716        2.97952354
 C            2.55300342        1.21459337        2.94303108
 C            0.48218396        1.20358727        4.03628442
 C            1.34161188        1.98861015        3.18797413
 C           -0.81623605       -0.69079089        3.56111068
 C           -0.78199104        0.76045209        3.49331988
 C           -1.40291680       -1.36148381        2.49223797
 C            0.71658984       -2.45459380        2.00707247
 C           -0.60387674       -2.16648256        1.65363476
 C            2.65838136       -1.26628301        1.53416326
 C            1.74791277       -2.26467891        1.00770985
 C            2.73930099        1.15694606        1.50238998
 C            2.81095191       -0.06759358        0.82992499
 C            0.83278557        2.41699678        1.89648146
 C            1.90123189        2.19840440        0.94373594
 C           -1.31325784        1.36563330        2.35251220
 C           -0.47645719        2.11452072        1.50300344
 C           -2.50110463       -0.71650023        1.93868916
 C           -2.42331918        0.73128056        1.80727813
 C           -3.09281609       -1.24364491        0.73252123
 C           -0.96162857       -2.34013233        0.30723208
 C           -2.27422363       -2.09570121       -0.09416068
 C            1.36123731       -2.14821712       -0.31540486
 C            0.04600444       -2.46051646       -0.65932309
 C            2.53527382       -0.07405896       -0.54258849
 C            2.06577926       -1.25780486       -1.11896186
 C            1.56044780        2.09900577       -0.38953615
 C            2.21225498        1.14000691       -1.15422835
 C           -0.78005378        2.22559226        0.13431075
 C            0.27349935        2.46459293       -0.76326001
 C           -2.86481677        1.07224447        0.47425924
 C           -3.50090501       -0.11152199       -0.07975053
 C           -2.03752575        1.82782683       -0.34451504
 C           -2.55302695       -1.73700795       -1.47519640
 C           -3.23884668       -0.45002432       -1.46619800
 C           -0.29039434       -2.48904433       -2.01220736
 C           -1.58852554       -1.99393681       -2.43837885
 C            1.85474564       -1.30666694       -2.49247147
 C            0.69384572       -2.03122195       -2.98084167
 C            2.02555977        1.17656112       -2.53229123
 C            1.96325955       -0.07832608       -3.25689508
 C            0.02389910        2.61397726       -2.12305533
 C            0.98208904        2.04380082       -3.05857672
 C           -2.27949088        1.78789968       -1.71719394
 C           -2.79785020        0.56124664       -2.30951548
 C           -1.30084191        2.33752853       -2.62936563
 C           -1.36490214       -1.03513118       -3.51036816
 C            0.01309749       -1.18975560       -3.95207597
 C            0.83794905       -0.01596232       -4.17696325
 C            0.24226577        1.30206671       -4.06651264
 C           -1.94679659        0.22948765       -3.43844590
 C           -1.17024673        1.41997135       -3.75198875
