56
Modified xyz file
 C            1.23603293       -0.09700345        3.80779326
 C            2.49720555       -0.31245850        3.12421111
 C            2.43538509       -1.62113911        2.49496840
 C            0.37930455       -1.24208856        3.53021159
 C            1.05767886       -2.07852494        2.56663477
 C           -0.93482192       -0.73832584        3.20045866
 C            0.46709389        1.10202085        3.52276196
 C           -0.92453985        0.69840505        3.43114454
 C            0.96422367        2.05159702        2.63427294
 C            2.93058764        0.63788593        2.11618316
 C            2.20622264        1.80946411        1.90947252
 C            3.06504296       -1.52167797        1.18954254
 C            3.41576691       -0.12398355        0.97550494
 C            2.52258304       -2.25650809        0.14241608
 C            0.40796758       -2.42996160        1.38601872
 C            1.19212081       -2.82337605        0.30141626
 C           -1.60519739       -1.23695828        2.08601553
 C           -0.93568176       -2.07782481        1.18257226
 C           -2.76581409       -0.57431517        1.68645629
 C           -1.82150239        1.48750711        2.72334977
 C           -2.92335639        0.82275162        2.04933888
 C            0.05274059        2.74435718        1.73466371
 C           -1.31274374        2.51464841        1.82152828
 C            2.04351435        2.33302495        0.56180749
 C            0.67516735        2.80359170        0.42291178
 C            3.33227282        0.41973171       -0.30222688
 C            2.64591698        1.68783610       -0.50792308
 C            2.61905618       -1.75208402       -1.21724027
 C            3.02559597       -0.44041654       -1.43624273
 C            0.60382241       -2.95008955       -1.01973509
 C            1.49521873       -2.29482778       -1.96711432
 C           -1.56830989       -2.45669004       -0.00306461
 C           -0.77047839       -2.82748969       -1.16024226
 C           -3.27342238       -0.73328676        0.33436548
 C           -2.71873883       -1.70882235       -0.48141719
 C           -3.20893964        1.55916319        0.83336953
 C           -2.09697227        2.46311855        0.59947597
 C           -3.54279085        0.59609334       -0.20167929
 C           -0.06225383        2.46537670       -0.71343667
 C           -1.46413597        2.42912966       -0.64315268
 C            1.93810641        1.60755329       -1.77290491
 C            2.33524925        0.36962543       -2.42602802
 C            0.61296234        2.03345698       -1.86595982
 C            0.96566651       -1.57785336       -3.03515285
 C            1.44987818       -0.23201465       -3.31195018
 C           -1.32310036       -2.15249518       -2.32462065
 C           -2.52563537       -1.44512032       -1.90028406
 C           -0.46965468       -1.59377094       -3.27303592
 C           -3.17030233        0.89211431       -1.50621589
 C           -2.20330971        1.95723769       -1.72524866
 C           -2.82444265       -0.18637923       -2.41460375
 C           -0.09768510        1.70566204       -3.01792243
 C            0.32324315        0.54963048       -3.79176145
 C           -0.82076283       -0.33870172       -3.91226823
 C           -1.54232455        1.69383955       -2.98348342
 C           -1.98871020        0.38936514       -3.45395109
