56
Modified xyz file
 C            1.35152311       -0.08401121        3.38543547
 C            2.34090083       -0.24706402        2.33636198
 C            2.15048941       -1.56242201        1.74195801
 C            0.49754302       -1.25941396        3.38543547
 C            0.95834998       -2.14998201        2.33636198
 C           -0.88087879       -0.81533663        3.36560449
 C            0.50322470        1.08971839        3.36560449
 C           -0.87730697        0.63740082        3.22753628
 C            0.93032795        2.20161304        2.65620189
 C            2.65261322        0.82945957        1.51162972
 C            2.06008705        2.07814764        1.74082242
 C            3.25578481        0.56336900        0.28622206
 C            2.40026914       -1.74389761        0.38176610
 C            3.07231404       -0.74584822       -0.32372004
 C            1.65874106       -2.69146451       -0.32372004
 C            0.03083964       -2.77910219        1.51162972
 C            0.47029708       -3.27052595        0.28622206
 C           -1.80637128       -1.56513030        2.65620189
 C           -1.33983394       -2.60144215        1.74082242
 C           -2.90839555       -0.87620911        2.01699715
 C           -1.74052474        1.26456524        2.31959638
 C           -2.77480928        0.54088366        1.73411775
 C           -0.06541927        3.03681204        2.01699715
 C           -1.37187416        2.47185820        1.73411775
 C            1.83292564        3.00116295        0.63358798
 C            0.49147655        3.53012723        0.76906399
 C            3.20547958        1.55828701       -0.76906405
 C            2.28787316        2.67062228       -0.63358730
 C            2.77480176       -0.54088345       -1.73411044
 C            2.90839428        0.87620338       -2.01699401
 C            1.37187163       -2.47185111       -1.73411044
 C            1.74050962       -1.26455426       -2.31957262
 C           -0.49147135       -3.53012941       -0.76906405
 C            0.06542432       -3.03680906       -2.01699401
 C           -2.28787040       -2.67062623        0.63358798
 C           -3.20547590       -1.55829128        0.76906399
 C           -1.83292103       -3.00116434       -0.63358730
 C           -3.07231821        0.74585088        0.32372244
 C           -3.25577746       -0.56336949       -0.28622197
 C           -1.65874488        2.69146766        0.32372244
 C           -0.47029434        3.27051911       -0.28622197
 C           -2.40029382        1.74391554       -0.38177022
 C            1.33983555        2.60143559       -1.74082407
 C            1.80637563        1.56512682       -2.65620764
 C           -0.03083792        2.77910364       -1.51163461
 C            0.87730654       -0.63740051       -3.22752563
 C            0.88088172        0.81533146       -3.36560738
 C           -0.93032329       -2.20161610       -2.65620764
 C           -2.06008032       -2.07814714       -1.74082407
 C           -2.65261407       -0.82946165       -1.51163461
 C           -0.50321888       -1.08971958       -3.36560738
 C           -2.15049842        1.56242856       -1.74196261
 C           -0.95834896        2.14998165       -2.33636824
 C           -0.49753942        1.25940995       -3.38544045
 C           -2.34090017        0.24706315       -2.33636824
 C           -1.35151817        0.08400903       -3.38544045
