56
Modified xyz file
 C            1.19227147       -0.09116967        3.83546745
 C            2.38044896       -0.37692040        3.06506806
 C            2.24628185       -1.72019899        2.52431910
 C            0.34556057       -1.27442976        3.79435142
 C            0.88359038       -2.15695119        2.77737248
 C           -1.02291704       -0.82856530        3.67021082
 C            0.37217573        1.04183844        3.45298756
 C           -1.01177642        0.62396631        3.60057385
 C            0.72336100        1.82579361        2.35151239
 C            2.71730391        0.49900380        1.96355018
 C            1.96142647        1.64408068        1.71038647
 C            2.73046803       -1.69993527        1.15330059
 C            3.11451951       -0.33381253        0.83941963
 C            2.04816312       -2.43674604        0.20224134
 C            0.09234252       -2.55009719        1.69547550
 C            0.73926660       -2.97819336        0.53477575
 C           -1.80712507       -1.30722419        2.55219455
 C           -1.28065531       -2.24855689        1.66711687
 C           -1.97588726        1.02986793        2.59048637
 C           -2.54071482       -0.17574522        2.00757136
 C           -0.28196910        2.57213395        1.73403020
 C           -1.65310509        2.08593545        1.75773730
 C           -0.05525867        3.17432192        0.43496148
 C            2.22826178        2.31217684        0.51559127
 C            1.22396231        3.17097431       -0.08861932
 C            2.93623930        0.17465150       -0.44703437
 C            2.85933737        1.56322270       -0.55893249
 C            1.97956068       -1.93865677       -1.15784026
 C            2.40001381       -0.64522378       -1.45649654
 C            0.00102493       -3.12616413       -0.70405674
 C            0.74801037       -2.43914284       -1.75153155
 C           -2.02124303       -2.49600568        0.51153814
 C           -1.37784220       -3.03431229       -0.67483602
 C           -2.89359987       -0.21254359        0.65871750
 C           -2.95797093       -1.47566531        0.06968755
 C           -2.13431634        2.07607078        0.38991784
 C           -1.18551539        2.82763358       -0.41914774
 C           -2.72213216        0.93127646       -0.14191193
 C           -0.97737042        2.46159429       -1.75054203
 C            1.38973136        3.10334569       -1.52901190
 C            2.47988826        2.18132281       -1.81096359
 C            0.25806091        2.71132768       -2.35095423
 C            1.98136018       -0.09902165       -2.66966028
 C            2.06945825        1.32885514       -2.90166862
 C            0.76206610        1.78179498       -3.34565816
 C            0.07990249       -1.66465056       -2.70216793
 C            0.73517049       -0.56460153       -3.26199024
 C           -0.03144401        0.61122071       -3.65995637
 C           -2.06781545       -2.50119650       -1.83521557
 C           -3.11935050       -1.61348937       -1.36159281
 C           -1.30439516       -1.78219435       -2.84027604
 C           -2.82788640        0.85073660       -1.53031899
 C           -1.86737722        1.56999069       -2.35536623
 C           -1.38748297        0.64876454       -3.37990592
 C           -3.09256274       -0.42034737       -2.17429637
 C           -2.08151515       -0.61013967       -3.20061077
