56
Modified xyz file
 C            1.24938368       -0.02223431        3.61014468
 C            2.51324653       -0.28198090        2.94792750
 C            2.46369304       -1.63582101        2.42396062
 C            0.40862198       -1.19751736        3.43835851
 C            1.10168936       -2.12009351        2.56905699
 C           -0.90666400       -0.74877190        3.04600565
 C            0.47374292        1.14156456        3.21683792
 C           -0.88900189        0.70483952        2.97200018
 C            1.03735240        2.09053026        2.37788765
 C            2.93811012        0.59553797        1.87149236
 C            2.28743122        1.80551253        1.67732714
 C            3.05107366       -1.62457114        1.09809233
 C            3.25172907       -0.23000163        0.71688743
 C            2.54561640       -2.50825407        0.15644822
 C            0.44562718       -2.61541756        1.44447152
 C            1.21945187       -3.07283730        0.37320236
 C           -1.60647593       -1.44501134        2.06894034
 C           -0.92714833       -2.38079144        1.26353925
 C           -2.75892223       -0.82432346        1.59472207
 C           -1.66784149        1.33115662        1.99599865
 C           -2.77316809        0.62770578        1.51071578
 C            0.17718524        2.81599048        1.46130941
 C           -1.13838471        2.39707405        1.25303472
 C            2.15947399        2.32650924        0.32866041
 C            0.99837522        3.20188622        0.32430494
 C            2.89481649        0.19865690       -0.56586197
 C            2.40331669        1.49496110       -0.76528625
 C            2.64162745       -2.14710790       -1.24328351
 C            2.77966367       -0.74392474       -1.58844205
 C            0.61044159       -3.29096134       -0.92958494
 C            1.45939043       -2.65404222       -1.92105667
 C           -1.55085118       -2.92433604        0.13691147
 C           -0.76247956       -3.15814596       -1.05655021
 C           -3.45479906       -1.34984197        0.44119165
 C           -2.82506233       -2.40168655       -0.32012793
 C           -3.38282447        0.99276672        0.24141340
 C           -3.70743695       -0.23911581       -0.46047344
 C           -1.81726163        2.86247846        0.12754530
 C           -2.83360104        2.03240981       -0.48901208
 C            0.38552225        3.51093452       -0.88115912
 C           -1.06422526        3.47749710       -0.95686209
 C            1.88135611        1.84574215       -2.01070255
 C            0.90597762        2.92140926       -2.10240671
 C            1.87991595       -0.49030430       -2.70016805
 C            0.90847768       -1.57025763       -2.71798524
 C            1.43936554        0.80077760       -2.91660871
 C           -1.28627848       -2.26073954       -2.07559046
 C           -2.63127789       -1.91325522       -1.67975299
 C           -3.02520252       -0.52263703       -1.71226347
 C           -0.45253388       -1.28228619       -2.61097012
 C           -2.37930873        1.75904107       -1.84168172
 C           -1.43356995        2.79751640       -2.19032173
 C           -0.22105964        2.42262000       -2.87732837
 C            0.02318904        1.01744482       -3.14255548
 C           -2.15086952        0.43497340       -2.22056906
 C           -0.88861564        0.04873286       -2.71178351
