56
Modified xyz file
 C            1.50634196        0.12098473        4.02186256
 C            0.67707590       -1.05484679        3.83275409
 C            1.29345688       -1.88990239        2.81688766
 C            2.58474761        0.06365551        3.05238230
 C            2.43191698       -1.15646566        2.27828144
 C            2.61561128        1.33098107        2.34973631
 C            0.69615937        1.28189970        3.70100071
 C            1.44641850        2.09839845        2.76567380
 C           -0.68408754       -0.60819329        3.61196709
 C           -0.62134352        0.81148437        3.30367667
 C           -1.50286918       -1.41093134        2.84007456
 C            0.46409129       -2.59045893        1.94311590
 C           -0.91464767       -2.56203320        2.17034353
 C            0.95483613       -2.90569155        0.67518701
 C            2.62459520       -1.12015839        0.89846559
 C            2.04731188       -2.12007843        0.12134899
 C            2.98745681        1.32881766        1.01136590
 C            3.04657468        0.06375914        0.28705065
 C            2.43074835        2.32505848        0.11068024
 C            0.73306093        2.81326121        1.81300086
 C            1.33860662        3.08086270        0.52092442
 C           -1.17630253        1.29204354        2.11379546
 C           -0.66012714        2.46131162        1.56915141
 C           -2.36149495       -0.77796216        1.85983333
 C           -1.98544985        0.45720815        1.33252701
 C           -1.83722166       -2.93044170        1.11141925
 C           -2.78666059       -1.83313685        0.97044748
 C            0.05023174       -3.24369427       -0.41687029
 C           -1.32247366       -3.23712202       -0.20894492
 C            1.74673668       -1.86504032       -1.27900611
 C            0.59816141       -2.67753776       -1.64187083
 C            2.68485623        0.33106543       -1.09877387
 C            2.44804806        1.75938287       -1.22979685
 C            1.87684267       -0.57366819       -1.78365886
 C            1.53439680        2.20450601       -2.17477826
 C            0.25288193        3.32376587       -0.41124196
 C           -0.96571555        2.80585318        0.19812159
 C            0.46077018        3.10267387       -1.76510557
 C           -2.20581166        0.74459252       -0.03154868
 C           -1.80440843        1.98826464       -0.55301126
 C           -2.90426200       -1.53655202       -0.43419764
 C           -2.18634061       -2.56837782       -1.16548868
 C           -2.80266087       -0.22035414       -0.87030888
 C           -0.25442883       -2.23082812       -2.64227547
 C           -1.69696604       -2.25297064       -2.42640436
 C            1.01356318       -0.12211545       -2.78892374
 C            0.96140757        1.24046176       -3.09731464
 C            0.06811134       -0.99468347       -3.33582761
 C           -0.69761848        2.78942286       -2.58160008
 C           -1.86706350        2.23349869       -1.92381373
 C           -0.27671976        1.82577955       -3.58082113
 C           -2.81558962       -0.03473487       -2.24946151
 C           -2.24685644       -1.07926510       -3.08417113
 C           -1.18249261       -0.47142797       -3.85837857
 C           -2.40765349        1.23046819       -2.81002467
 C           -1.40775198        0.95921107       -3.83745649
