56
Modified xyz file
 C            1.60032034       -0.08252871        3.76561382
 C            0.74916297       -1.25115008        3.65765508
 C            1.12436680       -1.98222027        2.45912588
 C            2.53935535       -0.11897258        2.66073363
 C            2.25144461       -1.28766255        1.85866455
 C            2.49332850        1.16953120        2.00520350
 C            0.75579436        1.08670331        3.58302746
 C            1.32102120        1.86922457        2.51095446
 C           -0.61955338       -0.79440441        3.76722902
 C           -0.60882287        0.62956868        3.44676623
 C           -1.59795014       -1.58073636        3.18664916
 C            0.10533162       -2.47476417        1.63998561
 C           -1.18451856       -2.55038566        2.17702337
 C            0.29392713       -2.49989906        0.24469354
 C            2.28343385       -1.15247757        0.48166099
 C            1.49834268       -2.00735272       -0.28475675
 C            2.72819432        1.22724472        0.63434056
 C            2.78146690        0.02760863       -0.08824564
 C            2.30259963        2.38320696       -0.01791226
 C            0.47661204        2.45995811        1.58009366
 C            1.11656175        3.04872950        0.49581554
 C           -1.38872487        1.10018796        2.38463682
 C           -0.81993561        1.93657785        1.40485159
 C           -2.76248447       -0.90529679        2.65595727
 C           -2.57835384        0.42484591        2.10051468
 C           -2.31092564       -2.75238345        1.29378361
 C           -3.31911851       -1.75846382        1.62441561
 C           -0.78434298       -2.78951442       -0.61504901
 C           -2.08069053       -2.68287105       -0.12864540
 C           -0.64462923       -2.54322684       -1.97580202
 C            1.76503658       -2.10812957       -1.64495485
 C            0.67759433       -2.41711039       -2.54186544
 C            2.95505477        0.07942328       -1.46955211
 C            2.56293402       -1.06844281       -2.27020704
 C            2.24689913        2.42397273       -1.46932733
 C            2.55339768        1.27614540       -2.19064247
 C            0.33391969        3.50054308       -0.63021893
 C            1.09277128        3.22689590       -1.84062195
 C           -1.45798517        2.05042047        0.15847081
 C           -0.98624337        2.94226782       -0.79727311
 C           -3.07873610        0.40147447        0.73584733
 C           -3.52953842       -0.94161058        0.44444255
 C           -2.91769772       -1.62404467       -0.67449797
 C           -2.36031207        1.06988153       -0.24010244
 C           -1.48277226       -1.50507269       -2.55312613
 C           -2.38545098       -0.86009605       -1.70932437
 C           -2.26599567        0.52444396       -1.52812880
 C            0.63008742       -1.38153396       -3.56223187
 C            1.83118323       -0.57963785       -3.42966938
 C            1.70475136        0.86057012       -3.30063177
 C           -0.66930790       -0.73419304       -3.47799826
 C            0.16614945        2.71899414       -2.83392916
 C           -1.13778938        2.59494233       -2.19904374
 C           -1.67832264        1.28809644       -2.53425160
 C            0.46144423        1.45966462       -3.49250197
 C           -0.75228489        0.65305843       -3.45764457
