56
Modified xyz file
 C            1.52814620        0.08158548        4.65339375
 C            0.65002450       -1.06494185        4.80071350
 C            1.25185897       -2.16117492        4.07011638
 C            2.52933056       -0.23895649        3.64539320
 C            2.37971812       -1.63354728        3.31252600
 C            2.41548598        0.74466630        2.57893394
 C            0.73156061        1.16674212        4.12260016
 C            1.49986888        1.77130708        3.05153279
 C           -0.61750315       -0.74586028        4.15601114
 C           -0.58941953        0.65113928        3.79008135
 C            0.27216001       -2.62798501        3.10747328
 C           -0.85458535       -1.71743833        3.10913569
 C            2.16758159       -1.98357323        1.92422834
 C            0.96914522       -2.79585167        1.85667477
 C            2.34098617        0.33613399        1.23712642
 C            2.34829688       -1.03197412        0.91359028
 C            1.89458862        1.26649937        0.28247416
 C            0.78545320        2.46791244        2.09850651
 C            1.24034091        2.41042009        0.72527212
 C           -1.13537795        1.04085517        2.57065195
 C           -0.64535192        2.22197478        2.03201967
 C           -1.32230465       -1.27741902        1.87052338
 C           -1.65339833        0.07230851        1.69009255
 C            0.24188232       -2.67142131        0.69159978
 C           -1.00576889       -2.04012804        0.74358692
 C            1.92742992       -1.40795621       -0.36416475
 C            0.98780046       -2.44161240       -0.44497809
 C            1.71538107        0.87416785       -1.04942548
 C            1.96022751       -0.45983614       -1.38523013
 C            0.98219285        1.70044039       -1.92604541
 C            0.13072311        2.91169379       -0.05168276
 C           -1.06682731        2.60032952        0.71024908
 C            0.08388312        2.64425916       -1.40854974
 C           -2.11908634        0.47877022        0.42668783
 C           -2.03367217        1.83851944        0.07757725
 C           -1.60771426       -1.71365531       -0.47467778
 C           -2.27490173       -0.48949847       -0.58404646
 C            0.32379589       -2.64162445       -1.63704459
 C           -1.08803452       -2.31144457       -1.62937277
 C            1.72090454       -0.90253547       -2.68379885
 C            0.90102468       -2.08501372       -2.83778315
 C            0.91281688        1.37236921       -3.28209651
 C            1.30590355        0.04471407       -3.69928261
 C           -0.27591194        1.71869189       -4.04940804
 C           -1.17902726        2.74980680       -1.98642371
 C           -2.30087912        2.21568646       -1.23118551
 C           -1.36167024        2.39689154       -3.37525055
 C           -2.82003978       -0.11959487       -1.81630816
 C           -2.98800093        1.28811860       -2.09364389
 C           -2.54384097        1.55166091       -3.45395702
 C           -1.42209292       -1.78836606       -2.94202059
 C           -0.19321604       -1.75703555       -3.72903471
 C            0.18500878       -0.54226571       -4.42491686
 C           -0.81384076        0.48981696       -4.61014966
 C           -2.33465036       -0.74768535       -3.03819840
 C           -2.13640469        0.29091441       -4.04009598
