56
Modified xyz file
 C            1.61213951        0.01356086        3.67082853
 C            0.79578500       -1.17707996        3.55288674
 C            1.26738770       -1.94560744        2.41110839
 C            2.59139389       -0.01855740        2.60069619
 C            2.35565712       -1.20082771        1.79994318
 C            2.54439844        1.26209134        1.93301601
 C            0.74570719        1.15799316        3.43856863
 C            1.34617707        1.95286922        2.39230214
 C           -0.59096386       -0.75412919        3.56010352
 C           -0.59907324        0.66419787        3.23378464
 C           -1.50360406       -1.57430364        2.92220115
 C            0.31542229       -2.55530366        1.59591526
 C           -0.98912406       -2.64974597        2.09108262
 C            0.54681705       -2.63206578        0.21406751
 C            2.38354517       -1.07020820        0.41886803
 C            1.63734329       -1.96174986       -0.35387387
 C            2.82839021        1.31570720        0.57421723
 C            2.87357451        0.11428136       -0.15249876
 C            2.43796771        2.48060812       -0.07741559
 C            0.53002288        2.54742986        1.43389075
 C            1.17660140        3.08156320        0.31792311
 C           -1.31825299        1.10149570        2.12060130
 C           -0.81271584        2.14864710        1.32600732
 C           -2.57158576       -0.96147572        2.15709487
 C           -2.41455655        0.34087529        1.68718337
 C           -2.07594399       -3.05246117        1.22015576
 C           -3.06576246       -1.98460852        1.24768059
 C           -0.42167864       -3.17787037       -0.63332276
 C           -1.78075339       -3.35260443       -0.16081622
 C           -0.53363464       -2.67229332       -1.98823022
 C            1.76790388       -1.93965835       -1.74118068
 C            0.57519370       -2.07827937       -2.55627476
 C            3.11845170        0.14942458       -1.52562439
 C            2.56998509       -0.90058981       -2.36142443
 C            2.55359699        2.57683661       -1.51656201
 C            2.94153633        1.39355216       -2.25396154
 C            0.43153805        3.38434888       -0.89414973
 C            1.26562745        3.01698267       -2.02830863
 C           -1.57892526        2.64790866        0.27419687
 C           -0.91694103        3.07453220       -0.94362549
 C           -3.13158617        0.72234861        0.55746993
 C           -2.77315026        1.93935535       -0.13605554
 C           -3.37161007       -1.61890727       -0.12533987
 C           -2.63548674       -2.51967830       -0.99543952
 C           -1.79916911       -1.96259104       -2.04865289
 C           -3.43704144       -0.27283384       -0.45896104
 C           -1.38906572        2.19803421       -2.00426272
 C           -2.62692440        1.61070842       -1.54932473
 C           -1.79953806       -0.58335995       -2.26804953
 C           -2.80765945        0.18398650       -1.68738522
 C            0.39956666       -0.79915286       -3.21178148
 C            1.73532779       -0.26404010       -3.37311364
 C            1.92646561        1.16089536       -3.26943685
 C            0.78676031        1.99164579       -2.93933696
 C           -0.65026020        0.02705475       -2.79747470
 C           -0.46527663        1.42104821       -2.69990987
