56
Modified xyz file
 C            1.46642823       -0.00220766        3.91963459
 C            0.66002164       -1.18223193        3.67160619
 C            1.34563925       -2.00469454        2.69135289
 C            2.62401165       -0.06507349        3.04599699
 C            2.53050357       -1.27771901        2.25280752
 C            2.71985478        1.20111942        2.35436607
 C            0.68180186        1.15493019        3.52394307
 C            1.46888791        1.91990988        2.57873032
 C           -0.68556682       -0.74200459        3.37122348
 C           -0.62396262        0.68753409        3.10432808
 C           -1.44980145       -1.53431601        2.53248866
 C            0.59158151       -2.69165368        1.74340940
 C           -0.80624929       -2.62127461        1.80303933
 C            1.21763510       -3.04541220        0.55207064
 C            2.83695128       -1.23310768        0.89074722
 C            2.30479047       -2.21596927        0.05802261
 C            3.26565385        1.20525122        1.07959307
 C            3.28833714       -0.03907998        0.31574543
 C            2.86783733        2.26538704        0.17339697
 C            0.82703254        2.51146248        1.49230056
 C            1.61478210        2.94828202        0.43018386
 C           -1.15973023        1.18292248        1.91650804
 C           -0.53535378        2.25924056        1.27471991
 C           -2.35510466       -0.88842404        1.60319912
 C           -2.13493005        0.43981237        1.24200106
 C           -1.61723404       -2.87577514        0.61618201
 C           -2.66263263       -1.86103486        0.57246240
 C            0.42827704       -3.46307216       -0.59267765
 C           -1.01101450       -3.29280079       -0.56180049
 C            1.99559424       -1.88285159       -1.32367401
 C            0.93513175       -2.75712895       -1.76073941
 C            2.90801022        0.27605247       -1.05580120
 C            2.78749446        1.70796561       -1.16656927
 C            1.99445941       -0.54698515       -1.70505519
 C            1.00088816        3.18901318       -0.85895922
 C            1.60361015        2.24601375       -1.79147303
 C           -1.17373705        2.85553246        0.18891965
 C           -0.37082261        3.36916087       -0.91379270
 C           -2.67612882        0.91994011        0.04737202
 C           -2.34195188        2.20434761       -0.38152366
 C           -3.13076877       -1.39953084       -0.64940179
 C           -3.31959801        0.03166035       -0.82221895
 C           -1.40113949       -2.68651106       -1.82365092
 C           -0.19047386       -2.17627446       -2.44945844
 C           -2.55239975       -1.91258617       -1.88535358
 C            0.86810789        0.00681336       -2.35444611
 C            0.76702994        1.40529890       -2.52055411
 C           -0.14733886       -0.84183681       -2.84671052
 C           -1.04055467        2.99805207       -2.14592805
 C           -2.36600881        2.52861712       -1.79855145
 C           -0.42454127        1.97063500       -2.96691479
 C           -3.30742318        0.27472700       -2.25344776
 C           -2.59165422       -0.83338348       -2.85843737
 C           -1.33034000       -0.30565481       -3.35002495
 C           -2.70852215        1.49397199       -2.75227472
 C           -1.48537000        1.12494132       -3.45691182
