56
Modified xyz file
 C            1.48646271        0.07657467        4.00168778
 C            0.68733516       -1.10990253        3.75363643
 C            1.37140731       -1.91252729        2.75757360
 C            2.58196886        0.08216964        3.04764092
 C            2.52251002       -1.15372440        2.28820425
 C            2.54502400        1.34033036        2.32953321
 C            0.65555133        1.23251534        3.72114975
 C            1.36907910        2.07546994        2.77882032
 C           -0.67231722       -0.69016832        3.48297779
 C           -0.67289600        0.75948846        3.36204080
 C           -1.41816792       -1.43584941        2.58565113
 C            0.62210368       -2.62298526        1.82375999
 C           -0.77396301       -2.50471925        1.83073376
 C            1.26968391       -3.02879332        0.66121102
 C            2.80053847       -1.13700973        0.92179610
 C            2.36257817       -2.21268894        0.15467454
 C            2.88352330        1.34066962        0.98203553
 C            3.09643796        0.07363683        0.29075273
 C            2.20236744        2.24044773        0.06397476
 C            0.62146820        2.79902575        1.85964186
 C            1.11289037        2.97464244        0.50122794
 C           -1.33343046        1.36371591        2.29165789
 C           -0.80773559        2.54618778        1.76785687
 C           -2.32761005       -0.75285652        1.68337393
 C           -2.27538700        0.63423508        1.55430045
 C           -1.54023579       -2.68419412        0.60181374
 C           -2.46520421       -1.57038511        0.48674027
 C            0.49367648       -3.49139448       -0.47340568
 C           -0.91737491       -3.16757326       -0.53502091
 C            2.17027919       -2.05575465       -1.27919159
 C            1.12501145       -2.98171877       -1.67834748
 C            2.73988740        0.27142017       -1.10736870
 C            2.14827798        1.59579288       -1.23545395
 C            2.21268979       -0.78376874       -1.84792642
 C            1.04293803        1.76266303       -2.06714664
 C           -0.04321331        3.11316613       -0.36740300
 C           -1.23540283        3.00959482        0.46412194
 C           -0.04875664        2.54092284       -1.64115546
 C           -2.87982161        1.20819225        0.43517556
 C           -2.38616789        2.47357042       -0.08625162
 C           -2.66440334       -0.93687798       -0.73842190
 C           -3.18639016        0.35671746       -0.70488558
 C           -1.17059611       -2.52356440       -1.81217480
 C            0.08125480       -2.50632728       -2.56010500
 C           -2.03240691       -1.42608476       -1.89597684
 C            1.41504890       -0.49207095       -2.95849061
 C            0.90512671        0.86100213       -3.12165804
 C            0.35577533       -1.41155442       -3.36306324
 C           -1.99880628       -0.66245571       -3.06634392
 C           -0.33621964        0.77459303       -3.86142457
 C           -0.76343062       -0.61355566       -3.82585993
 C           -1.27100767        2.48480416       -2.31598142
 C           -2.49243753        2.42528362       -1.53355739
 C           -3.16977142        1.18986955       -1.88821473
 C           -1.45414775        1.58227714       -3.43371265
 C           -2.54359419        0.67952607       -3.08522279
