56
Modified xyz file
 C            1.32171348       -0.23941897        3.70213905
 C            2.58282290       -0.49825965        3.03462956
 C            2.49529409       -1.80875226        2.40909389
 C            0.48784139       -1.42219861        3.55907178
 C            1.20802845       -2.39054819        2.75284728
 C           -0.83087254       -0.99183168        3.12601408
 C            0.53520916        0.91459418        3.30142836
 C           -0.81403064        0.46020091        3.01388028
 C            1.10509104        1.88799590        2.49418664
 C            3.05403889        0.44016970        2.02987489
 C            2.40650751        1.66243532        1.87413409
 C            2.84024363       -1.65107616        1.00562024
 C            3.42166636       -0.32948177        0.85112265
 C            1.96489337       -2.14058725        0.03648736
 C            0.51104419       -3.08419027        1.77277600
 C            1.04010167       -3.10749416        0.41802355
 C           -1.51611278       -1.73479199        2.16652447
 C           -0.92565734       -2.89057249        1.64902318
 C           -2.55664395       -1.11361867        1.47560223
 C           -1.55943709        1.06548026        2.00283456
 C           -2.61754720        0.33932383        1.45968850
 C            0.26952712        2.58316948        1.53365708
 C           -1.04639285        2.17788695        1.31917329
 C            2.39611647        2.30353631        0.56816762
 C            1.09452303        2.93349406        0.38837384
 C            3.38106494        0.27147283       -0.39774786
 C            3.01153369        1.67467981       -0.50573171
 C            1.79987991       -1.43700318       -1.16582980
 C            2.70851392       -0.42740948       -1.47687411
 C            0.63150311       -1.58923508       -1.93380024
 C           -0.06004246       -3.42923069       -0.46375881
 C           -1.28608479       -3.35735577        0.32049319
 C           -0.25387022       -2.62777979       -1.65239238
 C           -2.96878046       -1.59075000        0.16190257
 C           -2.25841007       -2.61204303       -0.45435834
 C           -1.68007173       -2.38860444       -1.77071546
 C           -3.22490194        0.75045085        0.20823781
 C           -3.38954521       -0.43886323       -0.62088430
 C           -1.69126265        2.65803188        0.17995438
 C           -2.84064901        1.95488299       -0.36236518
 C            0.50094522        2.99834706       -0.87234988
 C           -0.88508747        3.12761503       -0.93845464
 C            2.47625326        1.87602549       -1.83774643
 C            2.35948522        0.56721219       -2.46764858
 C            1.19869565        2.55073261       -1.99709928
 C            0.23073285       -0.59222484       -2.83557334
 C            1.05599829        0.49856356       -3.09021632
 C            0.49020389        1.83795965       -3.04921357
 C           -2.10566259       -1.30849531       -2.52881007
 C           -3.09309744       -0.39154496       -1.98005806
 C           -1.10907489       -0.50365495       -3.21260577
 C           -2.80691942        2.08796513       -1.80875467
 C           -1.57985629        2.78135543       -2.16694172
 C           -0.88510488        1.98859575       -3.16454461
 C           -2.90175118        0.89518838       -2.62806207
 C           -1.69260562        0.80965135       -3.43242521
