56
Modified xyz file
 C            1.31813564       -0.14264896        3.56897212
 C            2.54202858       -0.43449643        2.86330415
 C            2.44461271       -1.78691249        2.33297198
 C            0.47702302       -1.32905499        3.52371318
 C            1.15947788       -2.33606314        2.73140925
 C           -0.86119733       -0.91259648        3.13430972
 C            0.51779770        0.98179194        3.12938420
 C           -0.86537958        0.54019206        3.05849140
 C            0.99327021        1.85460149        2.15073911
 C            2.93420434        0.43206927        1.76988107
 C            2.19246518        1.57823266        1.46936838
 C            2.77668377       -1.72722192        0.91728288
 C            3.37713556       -0.42847789        0.68405508
 C            1.87677135       -2.24858250       -0.01111911
 C            0.42710867       -3.05740150        1.79893187
 C            0.93218039       -3.16746096        0.43957646
 C           -1.55755004       -1.64543755        2.17823564
 C           -1.00589332       -2.83138534        1.69043651
 C           -2.59858034       -1.02356492        1.49063054
 C           -1.72563988        1.18124108        2.17109334
 C           -2.69752401        0.42923448        1.50609875
 C            0.07495032        2.75416226        1.61038855
 C           -1.34207334        2.42359563        1.66765414
 C            0.33349419        3.39749672        0.33367459
 C            2.48291361        2.23751441        0.27481620
 C            1.47600045        3.06000121       -0.36942703
 C            3.38496795        0.08076948       -0.60277295
 C            3.18212843        1.50834637       -0.77090254
 C            1.71257670       -1.61150227       -1.25210311
 C            2.59737512       -0.59426412       -1.62202849
 C            0.60040654       -1.88749071       -2.06408276
 C           -0.19211578       -3.51021710       -0.40226844
 C           -1.40457713       -3.33249876        0.38630437
 C           -0.36847824       -2.79647965       -1.64569602
 C           -2.99692801       -1.48759764        0.16759553
 C           -2.34403556       -2.56736018       -0.41125511
 C           -1.77408920       -2.43282406       -1.74185927
 C           -3.20836760        0.85489504        0.20812540
 C           -3.32016959       -0.32163199       -0.64019862
 C           -1.97090253        2.94567865        0.46850392
 C           -0.92529173        3.48885279       -0.38337666
 C           -2.79244730        2.06278258       -0.33578143
 C           -1.03776874        2.85684145       -1.68606063
 C           -2.28584331        2.10530073       -1.69928797
 C            1.35977898        2.61746000       -1.75331299
 C            2.46553703        1.71342482       -2.01723012
 C            2.17967717        0.41033976       -2.58699811
 C            0.10446140        2.32892385       -2.28966993
 C            0.27793878       -1.02671601       -3.11244614
 C            0.98093053        0.23354679       -3.25617765
 C           -0.01995361        1.29207789       -3.21548862
 C           -2.13342128       -1.35381766       -2.54027071
 C           -2.91065052       -0.26186156       -1.96949920
 C           -2.40361440        0.98852057       -2.51746696
 C           -1.12301224       -0.77166119       -3.40579271
 C           -1.31652759        0.66933403       -3.42337502
