56
Modified xyz file
 C            1.33431164       -0.16620019        4.69254265
 C            0.51052601       -1.33682165        4.45990897
 C            1.17424764       -2.16493198        3.46542647
 C            2.52607356       -0.29135957        3.87015326
 C            2.39927387       -1.49935307        3.06972883
 C            2.71418985        0.97901176        3.19800715
 C            0.59968766        0.99522444        4.21510090
 C            1.51241083        1.77654782        3.41640372
 C           -0.73797716       -0.88538264        3.87348789
 C           -0.63255164        0.53235201        3.59935529
 C            0.19439802       -2.48708948        2.44151167
 C           -1.01946809       -1.75426650        2.75549875
 C            0.58610154       -2.54525748        1.10039509
 C            2.72679266       -1.46522021        1.71826312
 C            1.88675170       -2.16890170        0.75696950
 C            2.98930964        0.98633865        1.77072944
 C            3.14557923       -0.21457736        1.09416726
 C            1.06283188        2.23763654        2.12095880
 C            2.14155932        2.00385244        1.18435462
 C           -0.98979550        0.97713928        2.32131394
 C           -0.23918343        1.97613165        1.68687092
 C           -1.71245310       -1.23384722        1.67995745
 C           -1.81030331        0.15605646        1.53796340
 C           -0.41214953       -2.45339043        0.12270143
 C           -1.66694681       -1.97781958        0.51832740
 C           -0.03310979       -2.31703453       -1.21714438
 C            2.12970886       -1.55907876       -0.54073994
 C            2.76425647       -0.27727682       -0.30764778
 C            1.13961562       -1.61912785       -1.50928175
 C            1.78557819        1.92047575       -0.15221345
 C            2.22055190        0.84225467       -0.93338616
 C           -0.51517384        2.25815685        0.34653788
 C            0.57577348        2.50476083       -0.49520557
 C           -2.30770771        0.65350450        0.32662243
 C           -1.71136509        1.79655126       -0.21353122
 C           -2.59393687       -1.64379924       -0.44927001
 C           -2.96714771       -0.24388106       -0.52177843
 C           -1.02107189       -2.40674780       -2.19541139
 C           -2.38358966       -2.12220520       -1.79688493
 C           -0.80262046       -1.76278724       -3.48083451
 C            1.11135850       -0.62234023       -2.48829001
 C            1.59912147        0.65846323       -2.17462543
 C            0.29175999       -0.81946762       -3.59944719
 C            0.35129143        2.71451074       -1.84275451
 C            0.99511927        1.78151793       -2.74387825
 C           -2.04412370        2.21435824       -1.50458279
 C           -1.01431051        2.86666665       -2.28786151
 C           -3.17709283        0.08220964       -1.92205118
 C           -2.91875378       -1.12336738       -2.70187141
 C           -2.02791461       -1.06493535       -3.84577935
 C           -2.76466950        1.31894859       -2.39691070
 C           -0.20412251        0.31672357       -4.35436687
 C            0.15172369        1.64617934       -3.91454411
 C           -1.08132824        2.37438672       -3.65230149
 C           -1.65731327        0.23225150       -4.37507013
 C           -2.17372340        1.42425707       -3.72559377
