56
Modified xyz file
 C            1.53743475       -0.26830297        4.50781408
 C            0.65591909       -1.41324925        4.38598842
 C            1.14863849       -2.23596873        3.29501195
 C            2.56765255       -0.39436047        3.49030724
 C            2.22382406       -1.52091709        2.64150639
 C            2.71132438        0.90467209        2.87762067
 C            0.76530454        0.91955618        4.18322053
 C            1.58519775        1.72560408        3.31054185
 C           -0.65205608       -0.92324840        3.98728905
 C           -0.53581896        0.49086725        3.70246549
 C            0.00486576       -2.60181772        2.48761984
 C           -1.12095921       -1.78109662        2.92044892
 C            0.18045091       -2.76477225        1.11658146
 C            2.14446706       -1.35093751        1.25799534
 C            1.32929240       -2.22061429        0.52177451
 C            2.75524023        0.98319118        1.43105715
 C            2.61187184       -0.16793619        0.65856884
 C            0.98264622        2.27536995        2.11250794
 C            1.96321589        2.13332236        1.06120174
 C           -1.00660595        0.94619617        2.46945085
 C           -0.34312542        1.98620365        1.79459572
 C           -1.92378178       -1.23079500        1.92556436
 C           -1.94312552        0.16496057        1.77987455
 C           -0.98753744       -2.83731057        0.36497439
 C           -2.10782575       -2.02064052        0.79567002
 C           -0.92408386       -2.78635747       -1.08204943
 C            1.44883597       -2.21993143       -0.86538263
 C            0.30395121       -2.57386085       -1.69045400
 C            2.41210726        0.01759833       -0.71333402
 C            2.10958670       -1.09330618       -1.49458148
 C            1.50190214        2.18665902       -0.23994425
 C            2.04267012        1.29287254       -1.16099733
 C           -0.77201301        2.33871575        0.51078177
 C            0.20082178        2.63547971       -0.45291442
 C           -2.60049122        0.73203574        0.69138001
 C           -2.03652376        1.92920068        0.09939173
 C           -2.73829528       -1.46383084       -0.38459167
 C           -2.09858895       -2.06259967       -1.54738435
 C           -3.06692843       -0.11651181       -0.39453637
 C           -2.04171746       -1.35464315       -2.74194729
 C            0.37248953       -1.79429746       -2.91623046
 C            1.53165292       -0.91459255       -2.81687907
 C           -0.80472308       -1.33955209       -3.50644943
 C            1.74447984        1.50243563       -2.50482981
 C            1.48627686        0.36042010       -3.36576544
 C           -0.17558989        2.90211783       -1.76665055
 C            0.75316805        2.51874431       -2.81713457
 C           -2.37645060        1.93442891       -1.31440986
 C           -2.96438127        0.63828787       -1.63338881
 C           -2.61493705       -0.01990905       -2.81053124
 C           -1.51205063        2.54620308       -2.21304932
 C           -0.78937100       -0.11589103       -4.28882416
 C            0.40072654        0.71264163       -4.26746994
 C           -0.01364520        2.07182282       -3.96420429
 C           -1.91361696        0.70368693       -3.85661794
 C           -1.41177107        2.03395681       -3.57065268
