56
Modified xyz file
 C            1.36298925       -0.06803083        3.64253078
 C            2.60850391       -0.26455242        2.92547990
 C            2.58198678       -1.60167482        2.36032671
 C            0.52219638       -1.23332106        3.40368462
 C            1.23302347       -2.11957046        2.50641292
 C           -0.79055581       -0.76123676        3.01399303
 C            0.56715202        1.11363818        3.36227056
 C           -0.81081809        0.67861902        3.20612688
 C            1.07389585        2.10293690        2.52410676
 C            2.96553603        0.65807456        1.86179352
 C            2.26860738        1.85022936        1.72421661
 C            3.14846650       -1.53500872        1.02647733
 C            3.27258405       -0.12402690        0.67503843
 C            2.66432707       -2.41794817        0.07229129
 C            0.58373374       -2.60600229        1.37533237
 C            1.36232699       -3.03208708        0.29616184
 C           -1.40428084       -1.29969789        1.88603795
 C           -0.77750337       -2.34044901        1.18155844
 C           -2.47711368       -0.60566682        1.31558099
 C           -1.68757262        1.43791669        2.44357168
 C           -2.62975859        0.75619828        1.57346906
 C            0.16026278        2.89836328        1.71748910
 C           -1.20024618        2.60880240        1.72724508
 C            2.02733749        2.37669953        0.39359272
 C            0.82661778        3.19716285        0.45982570
 C            2.85009359        0.31668198       -0.58332652
 C            2.26223941        1.57941357       -0.72764682
 C            2.71987980       -2.01931988       -1.31971607
 C            2.77131011       -0.60299078       -1.63000654
 C            0.74664712       -3.25828214       -1.00257761
 C            1.55976391       -2.57804838       -1.99536490
 C           -1.41280398       -2.90619960        0.07905737
 C           -0.63252204       -3.17844452       -1.11398779
 C           -3.18840149       -1.16662801        0.26112686
 C           -2.68589916       -2.37020089       -0.36516095
 C           -3.67142944       -0.29747905       -0.79913005
 C           -2.95275873        1.65865645        0.47968407
 C           -1.97848271        2.73897084        0.50280251
 C           -3.36383017        1.12295082       -0.73488557
 C            0.07588571        3.39650891       -0.69218552
 C           -1.35727707        3.13791914       -0.67707616
 C            1.67262506        1.93088283       -1.94193204
 C            0.60147152        2.91363764       -1.95567187
 C            1.84363667       -0.37222394       -2.72371428
 C            0.95536431       -1.52018073       -2.79012928
 C            1.31346709        0.89226513       -2.89098575
 C           -1.20035796       -2.35502623       -2.16821822
 C           -2.57802216       -2.11060872       -1.79487976
 C           -3.14709459       -0.80886748       -2.05500590
 C           -0.42608947       -1.33437668       -2.72718571
 C           -2.64383701        1.46782620       -1.95204684
 C           -1.71587902        2.50263340       -1.93806948
 C           -0.50176556        2.35465163       -2.72076761
 C           -0.10678042        1.02569898       -3.15923339
 C           -2.29916074        0.22093959       -2.61898518
 C           -0.96169083       -0.05012792       -2.91939531
