56
Modified xyz file
 C            1.45210340       -0.10254374        4.23103144
 C            0.57158325       -1.25417144        4.29703247
 C            1.11527610       -2.26353743        3.41399561
 C            2.44529172       -0.35236440        3.19691213
 C            2.20718900       -1.66908146        2.65797436
 C            2.42245385        0.76773965        2.28734454
 C            0.65738613        1.02692781        3.79258288
 C            1.41253236        1.70713525        2.75877210
 C           -0.71892141       -0.86763564        3.74839420
 C           -0.66030445        0.54365579        3.43363726
 C            0.00449977       -2.80917878        2.65896569
 C           -1.04409778       -1.79775297        2.68184511
 C            0.30946653       -3.38060610        1.43919855
 C            2.20923803       -1.86210659        1.27791504
 C            1.58880119       -3.02807811        0.84156263
 C            2.51323484        0.54008336        0.91515559
 C            2.26422660       -0.74984538        0.40690248
 C            2.28164064        1.64664503        0.10330166
 C            0.70394899        2.40672239        1.78904286
 C            1.39135231        2.67787117        0.61222111
 C           -1.17542990        0.98294327        2.22345738
 C           -0.67371897        2.17405187        1.70426717
 C           -1.53117441       -1.29565817        1.47041594
 C           -1.78209439        0.07434165        1.34454943
 C           -0.64747148       -3.23988543        0.36619846
 C           -1.43079269       -2.08183354        0.31927217
 C            1.47047753       -3.27796494       -0.57400267
 C            0.08429648       -3.65444095       -0.81047796
 C            1.95810431       -0.91502328       -0.96157333
 C            1.76695813       -2.19464822       -1.48028224
 C            1.97684848        1.46570080       -1.29992115
 C            1.65775101        0.19754506       -1.76264554
 C            0.67315098        3.24949906       -0.50998325
 C            1.17652797        2.60396556       -1.71687253
 C           -1.39880183        2.77052282        0.68397064
 C           -0.68868072        3.48076077       -0.36417097
 C           -2.31955833        0.57024656        0.15399997
 C           -2.40243924        1.95982792        0.02420929
 C           -1.82020237       -1.54818843       -0.91755850
 C           -2.35091017       -0.25338001       -0.98383304
 C           -0.29641733       -3.09182317       -2.07837663
 C            0.85755211       -2.36606312       -2.59099670
 C           -1.39872920       -2.15614782       -2.10532703
 C            0.88415127        0.05953866       -2.92915651
 C            0.33891298       -1.18293304       -3.24086368
 C           -1.11096619       -1.31344846       -3.24221751
 C            0.35235754        2.47332002       -2.82529026
 C            0.23463589        1.17391924       -3.46612631
 C           -1.54243312        3.47395501       -1.53789857
 C           -2.65445243        2.57163671       -1.26311324
 C           -0.96747050        3.08707490       -2.80985392
 C           -2.63296052        0.28615044       -2.24769603
 C           -1.85431341       -0.15976220       -3.39243101
 C           -1.15086683        1.01065155       -3.87590422
 C           -2.82763861        1.71568795       -2.41075319
 C           -1.90110312        2.16998254       -3.43680215
