56
Modified xyz file
 C            1.05866911       -0.01893852        4.01614848
 C            2.31924063       -0.24824422        3.34672626
 C            2.32524842       -1.64157109        2.93663762
 C            0.26151442       -1.23150489        3.86986893
 C            0.93789599       -2.05594249        2.89025598
 C           -1.10191837       -0.82503714        3.61249215
 C            0.22916239        1.07754860        3.56415636
 C           -1.13834274        0.62288197        3.70437659
 C            0.57116804        1.78407981        2.40817112
 C            2.61923296        0.52986681        2.16009885
 C            1.62000785        1.32513848        1.59770999
 C            3.09790308       -1.71353762        1.71791658
 C            3.38822524       -0.34522305        1.30366034
 C            2.51080460       -2.37097715        0.56787496
 C            0.34805729       -2.29091084        1.64384042
 C            1.15869474       -2.72619730        0.58610415
 C           -1.70259895       -1.17621191        2.34337501
 C           -0.95932069       -1.84528220        1.37629502
 C           -2.10253308        1.09983807        2.73508974
 C           -2.51289773       -0.04672035        1.92830300
 C           -0.40238393        2.60899439        1.85271394
 C           -1.80870691        2.28389630        2.07778736
 C           -0.26532325        3.04640379        0.47712544
 C            1.56457879        1.50064269        0.20275582
 C            0.68197915        2.44074733       -0.34403797
 C            3.17266643       -0.28304201       -0.12699678
 C            3.02165322       -1.65177181       -0.58226291
 C            2.31944202        0.67969340       -0.65327901
 C            2.41224063       -1.87051390       -1.80660623
 C            0.56364780       -3.06095163       -0.62776915
 C            1.31486529       -2.82084300       -1.84999497
 C           -1.42665825       -1.82885573        0.06400707
 C           -0.80521797       -2.64485502       -0.87297721
 C           -2.75923105        0.13683946        0.56654903
 C           -2.32570725       -0.83338550       -0.34569632
 C           -2.51791616        2.55573328        0.84747246
 C           -1.60700393        3.25664733       -0.03603991
 C           -3.04064543        1.42570748        0.10734239
 C           -1.89947966        2.82675873       -1.38901503
 C           -2.87428047        1.73961645       -1.30041182
 C            0.50203797        2.50015328       -1.72855159
 C           -0.83534157        2.71120890       -2.27222780
 C            1.93757652        0.54187092       -1.98682218
 C            1.99899198       -0.71687829       -2.59127693
 C            1.17933278        1.54036591       -2.57892221
 C            0.38490313       -2.38041851       -2.87453104
 C           -0.94562389       -2.36476656       -2.29262197
 C            0.91038987       -1.15502595       -3.45287967
 C           -2.59631181       -0.65307387       -1.70354413
 C           -2.81887528        0.69192778       -2.21045943
 C           -1.83624614       -1.38457977       -2.70358026
 C           -0.98645287        1.85938448       -3.43664251
 C            0.28243598        1.19252723       -3.66881841
 C            0.01303774       -0.21019854       -3.93169217
 C           -2.02622792        0.84875900       -3.41820963
 C           -1.41035877       -0.43177297       -3.71898784
