56
Modified xyz file
 C            1.16034090        0.05267345        3.98467923
 C            2.39056270       -0.21276111        3.27740567
 C            2.32321897       -1.58638441        2.80012463
 C            0.34529745       -1.15080111        3.90271833
 C            0.93276074       -1.98565163        2.87112028
 C           -1.03169552       -0.73034322        3.75074916
 C            0.33164164        1.15501736        3.54270513
 C           -1.04587000        0.72243507        3.68904436
 C            0.67585317        1.88969732        2.40731838
 C            2.72303884        0.61160813        2.13284990
 C            1.77983030        1.50605470        1.62165590
 C            2.98689727       -1.62310515        1.51954490
 C            3.41016288       -0.26445573        1.21249538
 C            2.24962805       -2.10234148        0.36801228
 C            0.21389684       -2.22512273        1.69370366
 C            0.88910528       -2.37156412        0.46542270
 C           -1.77521942       -1.21245581        2.60718998
 C           -1.18475951       -2.10665741        1.71615676
 C           -2.00740879        1.12002613        2.67124838
 C           -2.52106206       -0.09375448        2.05649624
 C           -0.32239224        2.68432081        1.85016268
 C           -1.69419093        2.19623119        1.85823428
 C           -0.09911568        3.32118338        0.57298544
 C            1.85793466        1.88293211        0.26737237
 C            1.04134440        2.90535848       -0.21258011
 C            3.19638546       -0.06423380       -0.20218896
 C            2.70610526       -1.31786343       -0.75532934
 C            2.60296917        1.11341536       -0.64253928
 C            1.91072436       -1.24718524       -1.89219677
 C            0.15837014       -2.46756823       -0.71943800
 C            0.68632808       -1.93366745       -1.91202420
 C           -1.90458103       -2.38502825        0.56097052
 C           -1.18961599       -2.79469777       -0.62506014
 C           -2.81590552       -0.12978849        0.69418247
 C           -2.88013882       -1.39682822        0.12551306
 C           -2.14209236        2.17985917        0.47949083
 C           -1.29201386        3.10537957       -0.23566485
 C           -2.47433315        0.96523153       -0.11784719
 C            0.59682219        2.87329272       -1.59215354
 C           -0.85363367        2.74856699       -1.56499428
 C            2.29007603        1.16066819       -2.00047406
 C            2.06031920       -0.10483285       -2.67631028
 C            1.30837740        2.10934355       -2.50175509
 C            1.15960470        0.13939635       -3.78176634
 C            0.57464504        1.45452238       -3.57480189
 C           -0.09263654       -1.89552798       -3.07486708
 C            0.07569316       -0.79408315       -4.00481636
 C           -2.08365322       -2.54971841       -1.73858322
 C           -3.02288724       -1.52480762       -1.30640813
 C           -1.52209234       -2.11463239       -2.99440505
 C           -2.27709316        0.79164542       -1.50100751
 C           -1.44702430        1.67300829       -2.22029521
 C           -0.85513143        1.26336443       -3.41576769
 C           -1.16473723       -0.03237668       -3.98361284
 C           -2.77832735       -0.35609312       -2.11942367
 C           -2.16032292       -0.85090059       -3.33324186
