56
Modified xyz file
 C            1.18153692       -0.07382558        3.75469592
 C            2.43734223       -0.39435175        3.10324969
 C            2.36655631       -1.77187533        2.64796068
 C            0.32682829       -1.24891372        3.68467084
 C            1.04540536       -2.28824757        2.97548556
 C           -0.97135415       -0.82885170        3.19032817
 C            0.41497174        1.06722765        3.28164517
 C           -0.93889886        0.61613796        3.01598578
 C            1.00179004        1.97465535        2.41391048
 C            2.87467112        0.42388732        1.98672754
 C            2.27665953        1.65789902        1.77458526
 C            2.82697846       -1.81297758        1.26829815
 C            3.10465613       -0.44883444        0.84538894
 C            2.21532050       -2.68413873        0.38031949
 C            0.36617147       -3.05206292        2.03537765
 C            1.05442504       -3.44396431        0.81687696
 C           -1.64342916       -1.60362779        2.24541563
 C           -1.00797270       -2.71430465        1.67858260
 C           -2.68896314       -1.00581158        1.54407053
 C           -1.68260758        1.17512117        1.97750677
 C           -2.78329589        0.44493323        1.54730526
 C            0.16914749        2.63449312        1.42375289
 C           -1.08842261        2.11396241        1.11538716
 C            2.21790786        2.17910809        0.42333556
 C            1.05252551        3.04426990        0.34984855
 C            2.73144779       -0.02288787       -0.43234267
 C            2.51286719        1.34639762       -0.65519206
 C            1.96706995       -2.24737112       -0.98030026
 C            2.34592784       -0.97268503       -1.39276789
 C            0.08491112       -3.44818029       -0.26668358
 C           -1.17839942       -2.98567349        0.25559496
 C            0.65816860       -2.73760431       -1.38375020
 C           -2.94988284       -1.42701230        0.18041192
 C           -1.95086717       -2.11345031       -0.50181404
 C           -3.48228238        0.84141369        0.34546355
 C           -3.67389229       -0.35320248       -0.46565115
 C           -1.66444333        2.41504868       -0.13081220
 C           -2.88423369        1.84967207       -0.49804274
 C            0.51038436        3.31702415       -0.89428644
 C           -0.89613860        3.02921012       -1.12500494
 C            2.21074581        1.80785486       -1.93328777
 C            1.24595289        2.88768804       -2.07176002
 C            1.83332523       -0.54488301       -2.61251940
 C            1.94251375        0.84782663       -2.97967050
 C           -0.14790147       -1.89849239       -2.14567528
 C           -1.45754249       -1.61107204       -1.72334025
 C            0.50970515       -1.01063261       -2.99694506
 C           -3.33892483       -0.01898081       -1.83027423
 C           -3.06602601        1.40774461       -1.86974565
 C           -2.21426377       -0.68920458       -2.45336000
 C           -1.04300609        2.59947838       -2.51011516
 C            0.28309013        2.50425763       -3.09025421
 C            0.70838810        1.23514560       -3.64664835
 C           -0.20384155        0.10350678       -3.59609728
 C           -1.98382464        1.62209423       -2.81095658
 C           -1.53697723        0.30706200       -3.26488374
