56
Modified xyz file
 C            1.46118616        0.04491807        3.83836062
 C            0.63331503       -1.13529741        3.67185453
 C            1.11063044       -1.86804682        2.51170308
 C            2.42851395        0.05992576        2.75743368
 C            2.25065771       -1.14720021        1.97264017
 C            2.32057355        1.33553254        2.07420044
 C            0.60616168        1.20749656        3.67661541
 C            1.19495745        2.05248475        2.65678797
 C           -0.75085664       -0.70892023        3.68681405
 C           -0.75671243        0.73802483        3.49189392
 C           -1.66826553       -1.47750370        2.98872483
 C            0.17450751       -2.40497018        1.62933482
 C           -1.16992863       -2.44103181        2.01382689
 C            0.51179921       -2.54402503        0.27874564
 C            2.37969025       -1.05187117        0.59523518
 C            1.68428065       -1.95429462       -0.20744804
 C            2.48831524        1.35411048        0.69151823
 C            2.80861252        0.15716962        0.04405577
 C            1.91953593        2.39669740       -0.04495574
 C            0.34773648        2.75159253        1.81229356
 C            0.79172743        3.04086636        0.46038297
 C           -1.54715708        1.30143622        2.48423802
 C           -1.06099139        2.37781440        1.73920294
 C           -2.79665271       -0.80320254        2.38098482
 C           -2.64007959        0.58695075        1.99567200
 C           -2.20820312       -2.62068849        1.01169818
 C           -3.18282856       -1.55722921        1.20220151
 C           -0.43423274       -3.04593969       -0.61651370
 C           -1.84584582       -2.96637871       -0.28179674
 C           -0.30773551       -2.76583268       -2.03912703
 C            1.95403817       -1.97817425       -1.57386346
 C            0.86649820       -2.20195115       -2.50772491
 C            3.16319003        0.18965540       -1.29891124
 C            2.79339350       -0.93385921       -2.14028842
 C            2.16105855        2.46847053       -1.41484143
 C            2.91418101        1.40351707       -2.05226272
 C            1.05883675        2.81327662       -2.29799328
 C           -0.39449401        3.15237927       -0.37274952
 C           -1.48725900        2.53589997        0.35545822
 C           -0.27592632        2.92138754       -1.73270482
 C           -2.99839638        0.70043037        0.58715737
 C           -3.41612898       -0.61203125        0.12235831
 C           -2.24788551        1.53294050       -0.24070641
 C           -2.51498071       -2.30519473       -1.39061863
 C           -1.56209736       -2.18839024       -2.47958707
 C           -3.11395188       -0.99777672       -1.17381060
 C           -1.10168909        1.89323939       -2.34578347
 C           -2.02910806        1.18518450       -1.58116326
 C           -1.56609642       -0.81028133       -2.93709334
 C           -2.44901712       -0.05615341       -2.05793344
 C            0.79174158       -1.01791964       -3.35214667
 C            2.11026427       -0.40584584       -3.31209740
 C            2.22522248        1.03692775       -3.28109191
 C            1.01619973        1.82777937       -3.36421785
 C           -0.36625087       -0.22916873       -3.33892475
 C           -0.27405401        1.16307039       -3.29503729
