56
Modified xyz file
 C            1.40591639       -0.00781538        3.92617310
 C            0.62953344       -1.18344195        3.59163059
 C            1.26984178       -1.85145229        2.46974478
 C            2.57440709        0.00017956        3.06935215
 C            2.45731178       -1.09526712        2.12017885
 C            2.69527891        1.33856103        2.53517353
 C            0.60407330        1.15356078        3.57436142
 C            1.36761021        1.93895369        2.62961892
 C           -0.74457879       -0.75563102        3.42690830
 C           -0.70335539        0.67727306        3.17799654
 C           -1.55239295       -1.52625227        2.60772845
 C            0.45877030       -2.34433376        1.45739060
 C           -0.90761947       -2.47786317        1.71548555
 C            0.90171681       -2.29021369        0.13493167
 C            2.74270096       -0.83457716        0.78060643
 C            1.94994120       -1.41908299       -0.22589868
 C            3.38052233        1.47918530        1.34192343
 C            3.51446260        0.29708298        0.49677412
 C            2.97346809        2.55913428        0.46928312
 C            0.74947128        2.40788582        1.46797742
 C            1.56673535        2.92047711        0.45837737
 C           -1.28789661        1.16526769        2.01172187
 C           -0.55769446        2.00217571        1.14982793
 C           -2.56477245       -0.85858154        1.81221747
 C           -2.41132967        0.49791181        1.52089565
 C           -1.82976676       -2.73343317        0.62015260
 C           -2.92702378       -1.78379420        0.74917721
 C            0.12052623       -2.90141077       -0.84479031
 C           -1.31342376       -3.02626046       -0.63319337
 C            0.32751307       -2.55918190       -2.23087245
 C            2.13652559       -1.04835637       -1.57445033
 C            1.22358132       -1.47135023       -2.53254061
 C            3.62807697        0.75754778       -0.86820370
 C            3.35793609        2.18604645       -0.87746088
 C            2.78176978        0.14777457       -1.86430406
 C            1.11334447        2.87834402       -0.92324377
 C            2.21207152        2.40745034       -1.73871039
 C            2.00230359        1.19828934       -2.50418798
 C           -1.04877941        2.25066785       -0.13574862
 C           -0.14922183        2.37537987       -1.19174982
 C           -3.08513158        1.03023049        0.42830229
 C           -2.37706061        1.96457397       -0.42578155
 C           -3.55150944       -1.28393842       -0.38545535
 C           -3.84931983        0.13617897       -0.42709429
 C           -1.98886530       -2.53657975       -1.82561584
 C           -0.96701475       -2.25179563       -2.82027866
 C           -3.07756410       -1.67740432       -1.70549487
 C            0.47075395       -0.44717440       -3.23859812
 C            0.70486926        0.88093384       -2.89375301
 C           -0.35234675        1.62879763       -2.36045740
 C           -0.89067984       -0.92203547       -3.40777207
 C           -2.72718260        1.66360639       -1.80267772
 C           -3.70302122        0.58881691       -1.79790140
 C           -3.15251819       -0.51013643       -2.57048236
 C           -1.65800282        1.30031476       -2.71539699
 C           -1.94296132       -0.03523813       -3.22179676
