56
Modified xyz file
 C            1.42163866        0.15833901        4.12673851
 C            0.62747907       -1.02305396        3.85420845
 C            1.49738116       -1.96077273        3.18070158
 C            2.57603784        0.11732209        3.24122395
 C            2.67388786       -1.22810911        2.72868372
 C            2.43643024        1.21081178        2.29732215
 C            0.63183618        1.31018353        3.74390967
 C            1.45856276        2.12010184        2.87221703
 C           -0.59097558       -0.60430324        3.17540114
 C           -0.64308231        0.84529846        3.21673423
 C           -0.97927083       -1.26111009        2.01157905
 C            0.96983597       -2.66087536        2.03052834
 C           -0.35606293       -2.46772773        1.66463854
 C            2.76986361       -1.41935671        1.29453351
 C            1.96694070       -2.58613198        0.97964758
 C            2.39560476        0.95008812        0.92024630
 C            2.71870061       -0.32693333        0.43172064
 C            1.83483937        1.91709483        0.06994230
 C            0.79775414        2.97164034        2.01147520
 C            1.27157016        3.05819152        0.64807276
 C           -1.18153032        1.54462141        2.13879541
 C           -0.63909029        2.80325817        1.88162917
 C           -1.72473652       -0.56576974        1.05199109
 C           -1.79626527        0.83939146        1.09018296
 C           -2.29112859       -1.27609297       -0.01022114
 C           -0.74876849       -3.10007409        0.49655804
 C           -1.89374062       -2.59413556       -0.22675752
 C            1.52925337       -2.77158885       -0.32958912
 C            0.28330651       -3.37640473       -0.49293121
 C            2.55466397       -0.60487311       -0.91859176
 C            1.99304288       -1.89193520       -1.31312690
 C            1.61669572        1.63128343       -1.28801842
 C            2.01946051        0.40866443       -1.80450311
 C            0.72139701        2.38793825       -2.04495772
 C            0.22709598        3.77911296       -0.04828804
 C           -1.01027180        3.50304830        0.67383705
 C           -0.00670928        3.48229003       -1.44035667
 C           -2.33017507        1.54690334       -0.00155917
 C           -1.90713757        2.85271426       -0.25136314
 C           -1.41853434        3.17551695       -1.57700241
 C           -2.99475272       -0.59645987       -1.00003940
 C           -2.90583174        0.84771671       -1.06139124
 C           -2.96719205       -1.08077990       -2.37270151
 C           -1.76350847       -3.10133593       -1.58297662
 C           -0.35370286       -3.38560604       -1.79599540
 C           -2.21370914       -2.27823559       -2.68261661
 C            1.23538409       -1.68573866       -2.54283151
 C            1.18832281       -0.25265318       -2.80341334
 C            0.12698109       -2.47602820       -2.81580877
 C           -1.03536465       -1.87372979       -3.44118477
 C           -0.20379594        1.70501352       -2.93708014
 C           -1.54952405        2.16401531       -2.60295601
 C           -2.53697470        1.20991615       -2.42884454
 C           -2.41748826       -0.01542218       -3.18625854
 C            0.00493880        0.35555069       -3.23151109
 C           -1.08958142       -0.43078907       -3.59964256
