56
Modified xyz file
C          1.62982        0.11052        3.96882
C          0.82765       -1.06869        3.84382
C          1.39838       -1.88740        2.75882
C          2.62142        0.12038        2.92506
C          2.46960       -1.08724        2.12951
C          2.56522        1.39992        2.25348
C          0.80753        1.28287        3.80610
C          1.48817        2.20166        2.91434
C         -0.56211       -0.63301        3.68241
C         -0.54786        0.81754        3.45287
C         -1.46517       -1.43862        2.89830
C          0.51936       -2.72455        1.90471
C         -0.96920       -2.63099        2.17792
C          0.89134       -2.97072        0.61237
C          2.50950       -1.02676        0.64281
C          1.88649       -2.08215       -0.05480
C          2.65724        1.45303        0.77040
C          2.63945        0.23646       -0.03443
C          2.19032        2.63943        0.17808
C          0.68613        3.10327        2.08050
C          1.30847        3.60576        0.87427
C         -1.27468        1.39575        2.24916
C         -0.65386        2.61080        1.64758
C         -2.35531       -0.76992        1.94525
C         -2.21221        0.67223        1.53756
C         -1.83168       -2.84270        1.18544
C         -2.65164       -1.66851        1.03868
C         -0.05060       -3.43900       -0.41884
C         -1.48960       -3.35525       -0.12981
C          1.55961       -2.00153       -1.40642
C          0.41395       -2.90003       -1.69705
C          2.26079        0.32176       -1.43881
C          1.77522       -0.82239       -2.15050
C          1.85451        2.66874       -1.12804
C          1.91231        1.59721       -1.94984
C          0.23855        3.83936       -0.08447
C         -0.88034        2.99390        0.38305
C          0.73735        3.52252       -1.39994
C         -2.72325        1.12061        0.10850
C         -1.73184        2.15854       -0.52996
C         -2.86752       -1.38946       -0.34898
C         -2.27917       -2.55548       -1.09689
C         -2.91310       -0.11344       -0.84321
C         -0.43912       -2.59271       -2.70202
C         -1.87698       -2.37681       -2.36608
C          0.98069       -0.65159       -3.42287
C         -0.08918       -1.61037       -3.72500
C          0.91340        1.81852       -2.98854
C         -0.05303        2.76652       -2.35595
C         -1.31531        2.07668       -1.85423
C          0.43717        0.68005       -3.74245
C         -2.53518       -0.02111       -2.27654
C         -2.31607       -1.20951       -3.11646
C         -1.29078       -0.86253       -4.06396
C         -1.79543        0.98515       -2.73424
C         -1.00941        0.53329       -3.90948

