56
Modified xyz file
C          1.43012       -0.01599        3.98941
C          0.62792       -1.20308        3.95734
C          1.26907       -2.13985        3.00767
C          2.55532       -0.14297        3.10887
C          2.55910       -1.50502        2.59480
C          2.53009        0.97314        2.14147
C          0.61269        1.07611        3.56248
C          1.22503        1.61919        2.36271
C         -0.77041       -0.78653        3.76404
C         -0.79035        0.69521        3.54010
C         -1.63098       -1.62092        2.93467
C          0.42414       -2.68464        1.89659
C         -0.95596       -2.42641        1.90147
C          1.03039       -2.92817        0.65370
C          3.08179       -1.73264        1.24528
C          2.44851       -2.73465        0.40667
C          3.12521        0.86460        0.74674
C          3.44900       -0.59827        0.36541
C          2.26168        1.57806       -0.32712
C          0.40200        2.10572        1.24964
C          0.97951        2.22472       -0.05709
C         -1.77401        1.41378        2.59869
C         -1.03577        2.09444        1.38937
C         -2.75519       -1.00859        2.26015
C         -2.85938        0.44431        2.07301
C         -1.68422       -2.33056        0.71671
C         -2.90038       -1.61314        0.96766
C          0.32798       -2.67892       -0.52328
C         -1.02089       -2.31384       -0.52656
C          2.56729       -2.34073       -0.96967
C          3.27254       -1.06825       -1.02296
C          1.20874       -2.31096       -1.51362
C          2.44586        1.19284       -1.68085
C          2.91218       -0.14028       -2.09021
C          1.64133        1.63065       -2.67887
C          0.13631        2.62642       -1.16103
C          0.55860        2.42104       -2.49385
C         -1.79762        2.40591        0.24350
C         -1.24546        2.78881       -0.96001
C         -3.43203        0.63907        0.72447
C         -3.33035       -0.65899        0.00045
C         -3.14446        1.86422       -0.02301
C         -1.51208       -1.50051       -1.60004
C         -2.68800       -0.67251       -1.34718
C          0.81329       -1.48184       -2.56877
C          1.90965       -0.57508       -3.14069
C          1.44253        0.67684       -3.73516
C         -0.58149       -1.10788       -2.65944
C         -0.35332        2.20901       -3.63304
C          0.05714        0.88130       -4.11803
C         -0.92271       -0.00394       -3.47503
C         -2.25219        2.70437       -2.04548
C         -3.24357        1.79017       -1.49444
C         -2.84532        0.49026       -2.10425
C         -1.76662        2.15721       -3.30675
C         -2.01225        0.75780       -3.14665

