56
Modified xyz file
 C            1.29429797       -0.00295826        3.73269414
 C            2.54976589       -0.18885204        3.03174522
 C            2.53792831       -1.51967124        2.45307849
 C            0.46419293       -1.17185927        3.48236965
 C            1.21109788       -2.08481046        2.64580867
 C           -0.82437672       -0.71404131        3.01760548
 C            0.50492003        1.17923905        3.43961780
 C           -0.83292066        0.74123906        3.06361929
 C            1.09256027        2.22894232        2.74678794
 C            2.91052409        0.74814168        1.98098732
 C            2.27335774        1.97999090        1.92257816
 C            3.05123574       -1.42130560        1.09702132
 C            3.07561823       -0.00809608        0.75012165
 C            2.56954472       -2.32239373        0.16257549
 C            0.58887057       -2.67718677        1.55013146
 C            1.42614304       -3.13569447        0.53326081
 C           -1.42727667       -1.35056029        1.94081551
 C           -0.75687173       -2.37984739        1.26094673
 C           -2.48635739       -0.69010984        1.32533054
 C           -1.56253815        1.44701940        2.10172080
 C           -2.51781435        0.76379847        1.35337189
 C            0.22965073        3.13144875        2.01096294
 C           -1.10187122        2.68181867        1.64525664
 C            2.02483715        2.57440205        0.62168407
 C            0.91976162        3.49769785        0.78749215
 C            2.44488344        0.43486809       -0.41649436
 C            2.07124434        1.77923747       -0.52522076
 C            2.28801852       -1.84760925       -1.17704853
 C            2.01009092       -0.49796807       -1.36806754
 C            0.86217432       -3.64221696       -0.69892593
 C            1.41397667       -2.83348388       -1.77941129
 C           -1.37827021       -2.98041559        0.16164743
 C           -0.57574422       -3.65565239       -0.84080864
 C           -2.97508010       -1.12914716        0.03104170
 C           -2.43195680       -2.26887962       -0.54542768
 C           -2.85665856        1.22606754        0.01543874
 C           -3.21522371        0.05677577       -0.77903589
 C           -1.32456864        3.06668206        0.25798639
 C           -0.06404614        3.57806272       -0.27118988
 C           -2.14231781        2.28030927       -0.55534298
 C            1.40877903        2.21859278       -1.67156051
 C            0.32380640        3.18781799       -1.54284576
 C            1.13078567       -0.10768736       -2.38397972
 C            1.01777962        1.24880221       -2.67874140
 C            0.30866748       -2.37362321       -2.59213686
 C           -0.88799003       -3.05557159       -2.12485235
 C           -2.10598489       -2.27798359       -1.96647966
 C            0.20951470       -1.02485625       -2.92105139
 C           -2.93420728        0.03236613       -2.13819929
 C           -2.22685350       -1.10515165       -2.70298237
 C           -1.03864818       -0.57768945       -3.35068124
 C           -1.98027563        2.34197714       -1.94032102
 C           -0.71452554        2.80804746       -2.47683142
 C           -0.18321052        1.75286152       -3.31946348
 C           -2.40411681        1.22789940       -2.77011640
 C           -1.26432255        0.83121704       -3.58648209
