56
Modified xyz file
 C            1.49195000        0.05085984        4.04043051
 C            0.70476012       -1.16820612        4.01367441
 C            1.54418229       -2.20412700        3.45075268
 C            2.63927325       -0.15151128        3.16997366
 C            2.67986817       -1.55183168        2.81353332
 C            2.55881031        0.82821260        2.10488968
 C            0.68535781        1.11026347        3.46088395
 C            1.44833188        1.71193608        2.39189912
 C           -0.56797078       -0.86416661        3.37454229
 C           -0.61142993        0.56585394        3.12689747
 C           -1.09416408       -1.72028349        2.40518722
 C            0.95960969       -3.10474034        2.48141777
 C           -0.41443018       -2.89622538        2.05974299
 C            2.65831585       -1.91078787        1.40697214
 C            1.77408810       -3.05192282        1.27590973
 C            2.73270200        0.43770715        0.77877800
 C            2.59918613       -0.91700711        0.43130858
 C            2.43944763        1.38979716       -0.19913440
 C            0.76424839        2.21498752        1.29608070
 C            1.48753204        2.37137369        0.12154364
 C           -1.22454421        1.00354177        1.96092463
 C           -0.61729019        2.00552528        1.18982551
 C           -2.05061399       -1.21752024        1.51612534
 C           -2.16728244        0.17482778        1.36511059
 C           -2.50241527       -2.06938439        0.50687095
 C           -0.46092765       -3.35118300        0.68224018
 C            0.86334476       -3.09853618        0.14077189
 C           -1.55440307       -2.99147988       -0.08091012
 C            2.06121661       -1.24743765       -0.81617791
 C            1.00279666       -2.15732034       -0.88031390
 C            2.60540086        0.99931411       -1.52439257
 C            2.24448915       -0.35934389       -1.86534025
 C            2.14564872        1.85898008       -2.59643324
 C            0.90078072        3.13862164       -0.87518083
 C            1.37030033        3.02416941       -2.24206510
 C           -1.27706270        2.47962866        0.04521376
 C           -0.55017919        3.21981202       -0.89431538
 C           -2.97298145        0.72236950        0.37321568
 C           -2.49627112        1.90138614       -0.33418502
 C           -3.28763195       -1.54628702       -0.59232282
 C           -3.62229452       -0.14170855       -0.59156172
 C           -1.31848272       -2.48991646       -1.42087829
 C           -0.09848778       -1.88064598       -1.70223669
 C           -2.54067871       -1.82552111       -1.81404553
 C            1.21996344       -0.27382511       -2.88794948
 C            1.33653903        1.04199017       -3.49022998
 C           -0.03452479       -0.82156053       -2.61812272
 C            0.21398584        3.06371284       -3.11733262
 C           -0.96872101        3.20057000       -2.28382367
 C            0.12956381        1.77655502       -3.78899917
 C           -2.81428219        1.72526677       -1.75083018
 C           -3.31309640        0.37299302       -1.91077425
 C           -2.44648740       -0.59234192       -2.56276064
 C           -1.20734944       -0.14951703       -3.01979830
 C           -1.90601058        2.18045625       -2.69295174
 C           -1.14167986        1.18362712       -3.43164984
