56
Modified xyz file
 C            1.43143608        0.11744618        4.14296617
 C            0.60848133       -1.07373457        4.05470478
 C            1.34377904       -2.06288032        3.28936272
 C            2.57348381       -0.06916810        3.26255091
 C            2.52151340       -1.41320906        2.73564199
 C            2.58090019        1.02823253        2.32103299
 C            0.65383226        1.23205458        3.62608465
 C            1.45360972        1.89671544        2.62196694
 C           -0.70719123       -0.67269593        3.58679232
 C           -0.64458962        0.73576439        3.22697611
 C           -1.41379030       -1.53208465        2.75911195
 C            0.66082954       -2.74085769        2.20262192
 C           -0.72112170       -2.64375646        2.11067562
 C            2.48899800       -1.58988625        1.29407408
 C            1.45048419       -2.55969536        0.99438559
 C            2.86494316        0.79209341        0.97878605
 C            2.64186830       -0.49273668        0.44510060
 C            2.71153395        1.89423610        0.14510081
 C            0.81230001        2.49696382        1.54247819
 C            1.61865336        2.80351832        0.44896547
 C           -1.15890840        1.15147095        1.99895031
 C           -0.54277775        2.21054565        1.31811226
 C           -2.30562354       -0.95894161        1.76849899
 C           -2.09912898        0.35015779        1.33837659
 C           -1.33946290       -2.82793239        0.81061788
 C           -2.52867116       -1.99315307        0.78142799
 C            0.80047120       -2.48154709       -0.23511540
 C           -0.53759116       -2.88727609       -0.32720684
 C            2.22499445       -0.63350905       -0.88464958
 C            1.34784345       -1.66794311       -1.23194811
 C            2.75047427        1.70836752       -1.28757950
 C            2.48322151        0.38553105       -1.79831459
 C            1.01564916        3.22009878       -0.80275211
 C            1.78237697        2.61627978       -1.88226066
 C           -1.17090175        2.73501734        0.19150383
 C           -0.36716849        3.27377120       -0.89664633
 C           -2.59776546        0.74305596        0.09333040
 C           -2.28229271        2.00730045       -0.39603619
 C           -3.04166726       -1.62879701       -0.45239466
 C           -3.14296090       -0.21225963       -0.77329563
 C           -1.17697414       -2.85816826       -1.56417072
 C           -2.51898240       -2.30197971       -1.62912362
 C            0.81983059       -1.71917583       -2.51964484
 C           -0.44970526       -2.38530753       -2.72618563
 C            1.62953446        0.53983958       -2.96410480
 C            1.08766680        1.89195808       -2.93491009
 C            0.81810751       -0.51995841       -3.33876675
 C           -1.00575423        2.90806017       -2.15023660
 C           -2.24586256        2.22352270       -1.83240882
 C           -0.27743889        2.09482431       -3.11152701
 C           -2.96401899       -0.07340277       -2.21356694
 C           -2.56747643       -1.36743298       -2.73933433
 C           -1.31609079       -1.47572726       -3.46329974
 C           -0.55768634       -0.26757161       -3.73761248
 C           -2.36526837        1.07662688       -2.71190677
 C           -1.12994500        0.97733551       -3.48519936
