56
Modified xyz file
 C            1.27822426        0.00000019        4.40552652
 C            0.54990228       -1.17411747        3.95372428
 C            1.45865112       -1.99296044        3.18758676
 C            2.57228844        0.00000171        3.74366236
 C            2.69592222       -1.24573336        3.01415208
 C            2.69591966        1.24573740        3.01415272
 C            0.54989986        1.17411658        3.95372485
 C            1.45864702        1.99296182        3.18758777
 C           -0.66743595       -0.72345809        3.31023189
 C           -0.66743741        0.72345502        3.31023222
 C           -1.11610333       -1.34990403        2.15103469
 C            1.03253034       -2.44475564        1.87606145
 C           -0.26576714       -2.21742114        1.44357609
 C            2.98391769       -1.21063488        1.58927315
 C            2.10605644       -2.17834284        0.94471119
 C            2.98391521        1.21064025        1.58927376
 C            3.24492859        0.00000311        0.94151357
 C            1.03252532        2.44475682        1.87606268
 C            2.10605196        2.17834673        0.94471229
 C           -1.11610605        1.34990059        2.15103533
 C           -0.26577169        2.21741986        1.44357719
 C           -2.12535040       -0.70131415        1.43542530
 C           -2.12535181        0.70130899        1.43542563
 C           -2.69632732       -1.39848161        0.37499904
 C           -0.53513833       -2.44463353        0.09765846
 C           -1.86647854       -2.38439660       -0.28482606
 C            1.80043985       -1.99800375       -0.40275978
 C            0.47821879       -2.19534375       -0.84714502
 C            3.20421078        0.00000342       -0.44761241
 C            2.64427806       -1.15873412       -1.12103716
 C            1.80043575        1.99800772       -0.40275877
 C            2.64427568        1.15874017       -1.12103659
 C           -0.53514336        2.44463242        0.09765968
 C            0.47821428        2.19534530       -0.84714393
 C           -2.69633016        1.39847582        0.37499973
 C           -1.86648344        2.38439288       -0.28482487
 C           -3.44352051       -0.69426228       -0.65038475
 C           -3.44352194        0.69425549       -0.65038440
 C           -2.20584334       -2.39832914       -1.68707076
 C           -3.27601985       -1.43487386       -1.89314788
 C            0.14836613       -1.94299074       -2.19465344
 C           -1.16037164       -2.11737975       -2.64337859
 C            2.26535279       -0.72892344       -2.44675704
 C            2.26535128        0.72892938       -2.44675668
 C            0.98959788       -1.15430882       -2.97581070
 C            0.14836212        1.94299216       -2.19465245
 C            0.98959550        1.15431238       -2.97581011
 C            0.43237391        0.00000138       -3.65781210
 C           -2.20584829        2.39832543       -1.68706954
 C           -3.27602283        1.43486804       -1.89314716
 C           -1.16037601        2.11737868       -2.64337752
 C           -2.99823763       -0.72527081       -3.12876031
 C           -1.70265552       -1.17447815       -3.61352974
 C           -0.91991360        0.00000004       -3.96364384
 C           -2.99823914        0.72526619       -3.12875995
 C           -1.70265795        1.17447644       -3.61352914
