56
Modified xyz file
 C            1.45347307       -0.17496400        4.75039787
 C            0.60679276       -1.34794997        4.74597364
 C            1.10764619       -2.24310033        3.71582535
 C            2.46447581       -0.36335918        3.72290870
 C            2.07940813       -1.51197403        2.92253882
 C            2.60495561        0.90676808        3.06174702
 C            0.63795368        0.95275863        4.33022212
 C            1.45935318        1.73221595        3.44264464
 C           -0.71886137       -0.92696352        4.32313933
 C           -0.61683922        0.43085469        3.81905271
 C           -0.05124189       -2.77311397        3.04788102
 C           -1.19680994       -1.94761244        3.42877576
 C           -0.04766875       -2.81935231        1.60162902
 C            1.88317623       -1.36511666        1.53749999
 C            0.97505318       -2.20392855        0.87193042
 C            2.65512857        0.92510138        1.61574293
 C            2.39567729       -0.23575209        0.87935587
 C            0.87412153        2.20840785        2.20792922
 C            1.93663490        2.11676684        1.23727229
 C           -1.00754369        0.71785029        2.49866188
 C           -0.39388296        1.77430325        1.80688414
 C           -1.82864936       -1.53599285        2.19381467
 C           -1.40360022       -2.51077172        1.21983079
 C           -1.81450343       -0.19383048        1.79946395
 C           -1.60270034       -2.17997742       -0.09582069
 C            0.72757337       -2.01337289       -0.49401667
 C           -0.53723042       -2.38788788       -0.95714723
 C            2.14177156       -0.05409787       -0.48662359
 C            1.43286407       -1.02975582       -1.19837293
 C            1.56467583        2.20809551       -0.07928301
 C            2.10060202        1.26657020       -0.94336795
 C           -0.73299661        2.01737826        0.46924105
 C            0.25782751        2.59441590       -0.33065267
 C           -2.14721243        0.05810982        0.46184830
 C           -2.37999821       -1.06003417       -0.34443005
 C           -1.72513046        1.24579689       -0.14833245
 C           -2.76544690       -0.87803639       -1.66092498
 C           -0.82588981       -2.27563810       -2.30584012
 C           -2.14993936       -1.77032464       -2.62954517
 C            1.10251345       -0.78623088       -2.54326575
 C            0.10590242       -1.55758538       -3.14967703
 C            1.90798701        1.51187473       -2.29156150
 C            1.52293640        0.40556651       -3.14227572
 C           -0.03158628        2.90946479       -1.64664890
 C            1.01259546        2.61103372       -2.61303223
 C           -1.98350629        1.43745170       -1.51715773
 C           -2.68651261        0.45454689       -2.22118489
 C           -1.26949505        2.41769432       -2.21378832
 C           -2.07085011       -1.07655596       -3.89514661
 C           -0.66848650       -1.02847747       -4.26811044
 C           -2.49905241        0.29059271       -3.65941810
 C            0.78089076        0.97947832       -4.26054474
 C            0.38356916        2.32377478       -3.88233341
 C           -1.04969787        2.29851699       -3.65185330
 C           -0.41230307        0.31543333       -4.73139916
 C           -1.55792356        1.14093464       -4.35045611
