56
Modified xyz file
C          1.20784       -0.19591        3.80738
C          2.36736       -0.47394        3.04753
C          2.16698       -1.73687        2.36759
C          0.36499       -1.38995        3.73205
C          0.89568       -2.34210        2.73010
C         -0.97077       -0.93422        3.64710
C          0.41212        1.02347        3.53890
C         -0.94533        0.50510        3.48845
C          0.86679        2.12132        2.53912
C          2.92913        0.49129        2.14287
C          2.39762        1.93356        2.06308
C          2.58736       -1.55476        1.01222
C          3.28872       -0.27459        0.95404
C          1.67836       -1.91653       -0.10000
C          0.00534       -3.00067        1.64146
C          0.47621       -2.64889        0.18596
C         -1.91245       -1.51638        2.73059
C         -1.57045       -2.76758        1.90203
C         -1.86663        0.82807        2.44259
C         -2.63748       -0.38205        2.16772
C         -0.15306        2.32307        1.36305
C         -1.42779        1.66389        1.30110
C          0.31864        2.92445        0.18643
C          2.73296        2.59495        0.70957
C          1.69564        3.31222       -0.03875
C          3.46890        0.39258       -0.29280
C          3.44906        1.84676       -0.35839
C          1.80008       -1.20470       -1.34440
C          2.69543       -0.09987       -1.41770
C          0.76695       -1.29762       -2.31979
C         -0.45758       -2.78436       -0.85244
C         -0.32055       -2.14096       -2.07636
C         -2.45146       -2.87877        0.63977
C         -1.84206       -3.16460       -0.66308
C         -3.33531       -0.52728        0.93318
C         -3.45953       -1.83620        0.30817
C         -2.07451        1.48140        0.02890
C         -3.01547        0.42256       -0.11644
C         -0.32879        2.79568       -1.03626
C         -1.49068        2.02734       -1.14944
C          1.90623        3.23534       -1.48330
C          2.92166        2.20506       -1.66387
C          2.44422        0.95636       -2.26679
C          0.60525        3.04781       -2.15482
C          0.59979       -0.25374       -3.26453
C          1.35277        0.90068       -3.11581
C          0.48432        2.07959       -3.29418
C         -1.78348        1.44723       -2.40956
C         -0.70193        0.07200       -3.85775
C         -0.83974        1.48244       -3.53232
C         -1.62923       -2.01535       -2.75367
C         -2.58367       -2.55230       -1.76402
C         -3.50398       -1.61792       -1.12752
C         -3.19527       -0.19910       -1.33336
C         -1.87688       -0.67550       -3.38111
C         -2.51231        0.26846       -2.44248

