56
Modified xyz file
 C            1.40244491       -0.09688376        3.72680298
 C            2.60133648       -0.32414348        2.94318285
 C            2.50307752       -1.64671558        2.35215878
 C            0.53963169       -1.25412515        3.56965498
 C            1.27840301       -2.26578248        2.83378328
 C           -0.73743568       -0.79864902        3.03767140
 C            0.61266390        1.08583884        3.44634284
 C           -0.71159519        0.64946489        3.01640784
 C            1.21301225        2.14562443        2.77857751
 C            2.92657599        0.61591758        1.88454142
 C            2.35802905        1.88291934        1.90896267
 C            2.70261410       -1.51748309        0.91521508
 C            2.94906540       -0.11525396        0.62647241
 C            1.89175429       -2.25878844        0.05962465
 C            0.57136799       -3.06903404        1.95417821
 C            1.10925078       -3.26958778        0.62310307
 C           -1.30494241       -1.49668011        1.97475732
 C           -0.83893600       -2.78949018        1.74590506
 C           -1.94869171       -0.79050346        0.94278107
 C           -1.35039459        1.32590237        1.98413453
 C           -2.08693464        0.60856011        1.03811816
 C            0.35036335        3.08565610        2.08918517
 C           -0.97732027        2.64367170        1.71187939
 C            2.10893473        2.55722150        0.64848483
 C            1.02429585        3.49490644        0.87077883
 C            2.37716905        0.45245020       -0.50796140
 C            2.12840492        1.83264829       -0.54151085
 C            1.54635375       -1.72390788       -1.18958211
 C            1.84349851       -0.38884086       -1.49043446
 C            0.73502408       -2.45491793       -2.06193160
 C            0.02840385       -3.86010630       -0.14062713
 C           -1.20933116       -3.47876289        0.53042238
 C           -0.10360734       -3.51044018       -1.53657399
 C           -2.44279161       -1.48127864       -0.18322278
 C           -2.02704444       -2.78573477       -0.43561866
 C           -1.47818891       -3.09193941       -1.74480009
 C           -2.94516708       -0.77001330       -1.26919333
 C           -2.74986418        1.32369895        0.04192830
 C           -3.23179275        0.63693202       -1.13290583
 C           -1.25845124        3.21708367        0.40695373
 C            0.01434963        3.63994473       -0.16488858
 C           -2.19901847        2.59296699       -0.39893545
 C            1.50814659        2.39705811       -1.65383815
 C            0.34189857        3.24719874       -1.45702169
 C            1.42222166        0.14719501       -2.70558197
 C            1.26924353        1.58094955       -2.82486988
 C           -0.06863482       -1.75101847       -3.04695179
 C           -1.46609635       -2.03829122       -2.74545073
 C           -2.35277005       -0.98122204       -2.58272802
 C            0.30345116       -0.46290458       -3.40113811
 C           -2.69097929        1.31816510       -2.30103735
 C           -1.96506197        2.48727039       -1.83133692
 C           -0.70320772        2.76758840       -2.34555726
 C           -0.08561200        1.84620190       -3.28686432
 C           -2.01170353        0.32482341       -3.11870254
 C           -0.71541320        0.56464025       -3.56274374
