56
Modified xyz file
 C            1.29435952       -0.08709929        4.35312474
 C            0.58165852       -1.32237838        4.08191164
 C            1.54730245       -2.24183321        3.52506459
 C            2.48515480       -0.08942733        3.51967774
 C            2.70131111       -1.45364810        3.09981609
 C            2.30657937        0.93187756        2.50141886
 C            0.45843259        1.00555013        3.89877279
 C            1.24406613        1.80222119        2.97617408
 C           -0.60263343       -0.98854480        3.30238930
 C           -0.78966451        0.44767504        3.40597091
 C           -0.83820133       -1.61426279        2.07351456
 C            1.14075921       -3.05569879        2.39843641
 C           -0.10316163       -2.74386337        1.71269306
 C            2.90134716       -1.71797084        1.69118540
 C            2.19267235       -2.94908984        1.40770589
 C            2.34634272        0.58340394        1.14570299
 C            2.81967885       -0.68151253        0.75616814
 C            1.73132399        1.43309003        0.20940627
 C            0.54293405        2.54086214        2.04074505
 C            0.99252606        2.51945241        0.66221377
 C           -1.41090155        1.10601599        2.35468176
 C           -0.89254640        2.34138534        1.97123894
 C           -1.57443819       -0.93554172        1.09610385
 C           -2.06365030        0.34299922        1.38709479
 C           -1.58736370       -1.40865617       -0.22712171
 C            0.12968455       -3.01083260        0.30584937
 C            1.57249823       -3.07511362        0.10699679
 C           -0.63209301       -2.34167716       -0.64621508
 C            2.74078167       -1.04871281       -0.58468083
 C            2.10548516       -2.31978484       -0.92415852
 C            1.63605457        1.06350077       -1.13490143
 C            2.30362964       -0.07569048       -1.56812816
 C            0.68599660        1.66483682       -1.97912764
 C           -0.12702832        2.98655589       -0.13367451
 C           -1.31841892        2.90332188        0.70782884
 C           -0.22729482        2.60354042       -1.46864544
 C           -2.82052561        1.01579038        0.43369431
 C           -2.47922420        2.40283925        0.14219963
 C           -2.36746382       -0.76245318       -1.19248712
 C           -3.10651922        0.36416821       -0.83054948
 C           -2.15782372       -1.05808045       -2.54371199
 C           -0.11266462       -2.23563720       -1.93596930
 C            1.26368297       -2.06623410       -2.07326034
 C            1.75318416       -0.83847952       -2.67180349
 C           -0.92562545       -1.71941061       -2.93455888
 C            0.53612651        1.17575804       -3.28270521
 C            0.92457008       -0.19433830       -3.57216882
 C           -0.29549496       -0.88470575       -3.94354157
 C           -2.45294895       -0.06499992       -3.56760629
 C           -0.69893340        1.41378116       -4.01057450
 C           -1.25329227        0.11758335       -4.36440570
 C           -1.47036946        2.77889960       -2.08445904
 C           -2.66115724        2.60171413       -1.27893992
 C           -3.33610500        1.42804565       -1.79507348
 C           -1.75176679        2.15766370       -3.36076287
 C           -2.88083218        1.25314548       -3.15854926
