56
Modified xyz file
 C            1.60031196       -0.07462682        4.25391082
 C            0.74955296       -1.24885613        4.30547669
 C            1.25442229       -2.19714347        3.33243345
 C            2.54160839       -0.24608310        3.15815906
 C            2.32253684       -1.55660072        2.58067580
 C            2.42932918        0.91344530        2.29274589
 C            0.76021563        1.05601121        3.91593755
 C            1.45504609        1.81381288        2.89457432
 C           -0.58295462       -0.85965526        3.86996374
 C           -0.57046063        0.56065973        3.59872789
 C            0.11361622       -2.69964545        2.59114050
 C           -0.97457536       -1.75474782        2.80370216
 C            0.34160304       -3.14185196        1.29638943
 C            2.31147022       -1.68640627        1.19464074
 C            1.58081049       -2.74140727        0.64996071
 C            2.40748112        0.72060107        0.90988645
 C            2.58516006       -0.56939399        0.39452483
 C            1.88185666        1.72976168        0.09183445
 C            0.67816112        2.57723295        2.04342834
 C            1.12134342        2.73967673        0.67603009
 C           -1.18353044        1.04083357        2.44245363
 C           -0.74154058        2.26501948        1.95682608
 C           -1.62871997       -1.23772724        1.68925269
 C           -1.80422067        0.15174939        1.55155648
 C           -0.70720585       -2.96370921        0.30859419
 C           -1.72780084       -2.05304881        0.56263389
 C            1.36072766       -2.79163444       -0.78350416
 C           -0.07260449       -2.95541531       -1.00007178
 C            2.66286072       -0.73633794       -0.98581619
 C            2.07174161       -1.92150462       -1.59158301
 C            1.81744061        1.54419963       -1.29356851
 C            2.36654588        0.39235202       -1.84951966
 C            0.96926663        2.34640845       -2.06904061
 C           -0.02807203        3.24780491       -0.03757575
 C           -1.19330822        2.71684867        0.65748163
 C           -0.01226815        3.20347374       -1.41967543
 C           -2.40021046        0.64776404        0.38052158
 C           -2.10924094        1.95283435       -0.05774355
 C           -2.50230237       -1.62538301       -0.50361367
 C           -3.00440666       -0.26856531       -0.48182253
 C           -0.70687777       -2.28124287       -2.04380335
 C           -2.02893893       -1.88031615       -1.85604479
 C            1.49172805       -1.53361221       -2.86102191
 C            1.81609862       -0.13618966       -3.08601455
 C            0.06061196       -1.69267796       -3.05284479
 C            0.35229599        1.80378640       -3.27410622
 C            0.64891704        0.50403293       -3.66158613
 C           -0.41366587       -0.49534385       -3.73309401
 C           -1.27885729        3.01005590       -2.10064002
 C           -2.34288870        2.33097221       -1.38225995
 C           -1.02364086        2.26426110       -3.31963633
 C           -3.29968395        0.08925125       -1.85625933
 C           -2.60998251       -0.86352940       -2.71476720
 C           -1.74686179       -0.11576950       -3.60862120
 C           -2.96926556        1.41644456       -2.31292063
 C           -2.08867491        1.28913158       -3.46630782
