56
Modified xyz file
 C            1.17625679       -0.15068278        3.98400956
 C            2.46992095       -0.43317644        3.39456803
 C            2.32773456       -1.64334534        2.59454638
 C            0.35193813       -1.32833785        3.78502526
 C            0.94401714       -2.07747167        2.69564712
 C           -1.00955466       -0.86938625        3.64041221
 C            0.41171693        0.98232805        3.48603866
 C           -0.97774146        0.58564059        3.53190008
 C            0.88202975        1.69233983        2.38231094
 C            3.06832473        0.57860650        2.54825035
 C            2.25343383        1.70268676        2.12251432
 C            2.87702951       -1.37044533        1.27629665
 C            3.52921263       -0.08028978        1.33828538
 C            2.10862987       -1.66343261        0.15602043
 C            0.21990386       -2.27347441        1.51969612
 C            0.91998154       -2.37839619        0.32015282
 C           -1.78651547       -1.34670345        2.51475580
 C           -1.16935670       -2.07037352        1.49127102
 C           -1.84448451        0.94480212        2.42690083
 C           -2.63678610       -0.23726345        2.14626586
 C           -0.01174493        2.14791220        1.40014832
 C           -1.32830003        1.66922849        1.35227441
 C            0.47757253        2.89063563        0.32821143
 C            2.71950086        2.05162303        0.79723142
 C            3.31707413        0.84405902        0.23941641
 C            1.89149343        2.80883442       -0.01426478
 C            2.32517708       -0.94925225       -1.02796972
 C            2.82848294        0.35737812       -0.97227206
 C            1.73210429       -1.40849091       -2.20119284
 C            0.25107337       -2.84230904       -0.80101604
 C            0.76420913       -2.48657518       -2.11076364
 C           -1.85468353       -2.19216321        0.27445393
 C           -1.19502770       -2.72801803       -0.83408363
 C           -3.28050323       -0.30516956        0.92839627
 C           -3.03720626       -1.46903320        0.09439109
 C           -2.02517978        1.63964984        0.13537859
 C           -3.16263243        0.83159379        0.03916155
 C           -0.27923431        2.93305162       -0.91115819
 C           -1.47247235        2.22473074       -1.01316698
 C            1.97852063        2.59659530       -1.44618538
 C            2.41082139        1.29360418       -1.91733678
 C            0.66985235        2.85602371       -2.01042794
 C            1.23810225       -0.45002427       -3.17585149
 C            1.51593726        0.89781945       -2.99250508
 C            0.43881017        1.87835058       -3.05953864
 C           -0.36407933       -2.15636039       -2.96314179
 C           -1.57939817       -2.33837978       -2.18680916
 C           -0.09675976       -0.86715004       -3.57958112
 C           -3.46293406       -1.09480240       -1.24427352
 C           -3.61023555        0.35508333       -1.25421621
 C           -2.64235527       -1.46634404       -2.37925303
 C           -1.87431571        1.80441643       -2.28528630
 C           -0.86400432        1.44933573       -3.26803641
 C           -1.11819288        0.07282970       -3.66354987
 C           -2.96287882        0.86188291       -2.43968646
 C           -2.45228473       -0.27419070       -3.19236417
