56
Modified xyz file
 C            1.65548152       -0.19915192        4.16828786
 C            0.79101882       -1.36323006        4.20076441
 C            1.25172773       -2.27694337        3.17407760
 C            2.59591688       -0.37165329        3.07232109
 C            2.28594034       -1.60972475        2.39832808
 C            2.57453019        0.83852047        2.29289182
 C            0.83232767        0.95371057        3.84915160
 C            1.51450216        1.69409501        2.80983678
 C           -0.54561260       -0.93855916        3.82009822
 C           -0.50882085        0.49036077        3.56656429
 C            0.07992225       -2.75053267        2.46651206
 C           -0.99920392       -1.81425050        2.75157820
 C            0.25500868       -3.14315940        1.15346182
 C            2.17754577       -1.62555406        1.00576436
 C            1.43400609       -2.65976078        0.44526994
 C            2.70990947        0.75943735        0.91366347
 C            2.39211902       -0.45022649        0.25830479
 C            2.50156402        1.95757282        0.24706877
 C            0.75268899        2.39395323        1.87704472
 C            1.42486434        2.80549699        0.72805978
 C           -1.13069429        0.96980243        2.42079042
 C           -0.61755257        2.11048947        1.78916363
 C           -1.70511451       -1.25357735        1.68489271
 C           -1.97516640        0.11523853        1.70798094
 C           -0.85052029       -2.97082772        0.23719685
 C           -1.76029866       -1.94075587        0.46601396
 C            1.09550892       -2.62345355       -0.96195484
 C           -0.27365081       -3.10929863       -1.07996247
 C            2.13589745       -0.45186478       -1.13117309
 C            1.49936800       -1.54368513       -1.73879478
 C            2.48159270        1.97246860       -1.19157260
 C            2.32291879        0.71267753       -1.87773916
 C            0.68027189        3.27663488       -0.42624050
 C            1.39584722        2.84682349       -1.61334517
 C           -1.37204939        2.70139372        0.77765137
 C           -0.70371368        3.20953704       -0.41026445
 C           -2.79147740        0.65279109        0.72463736
 C           -2.58957528        2.03843285        0.34437046
 C           -2.41828553       -1.36523900       -0.62881948
 C           -3.02424509       -0.11423012       -0.48637850
 C           -1.02536900       -2.70128658       -2.16521084
 C           -2.20007870       -1.87891858       -1.91199352
 C            0.92229791       -1.40120582       -3.00512685
 C           -0.31861650       -2.10660527       -3.28159170
 C            1.45536758        0.97798738       -3.00867238
 C            0.67277815        2.15844260       -2.66686964
 C            0.82132073       -0.08718183       -3.61977864
 C           -1.41529994        2.70303008       -1.57705374
 C           -2.65775047        2.12116920       -1.10407610
 C           -3.04770189        0.81987918       -1.60781246
 C           -0.71994592        2.07033142       -2.61054221
 C           -2.37419759       -1.00782119       -3.06183520
 C           -1.22901344       -1.18668011       -3.93735973
 C           -0.55397340        0.09285998       -4.04775940
 C           -2.54062380        0.41266147       -2.83157715
 C           -1.36369135        1.08957984       -3.36824275
