56
Modified xyz file
 C            1.52419216        0.06635995        4.13999306
 C            0.72993046       -1.14612525        4.07770815
 C            1.49355492       -2.13407014        3.33937022
 C            2.65104484       -0.09820146        3.23506604
 C            2.65005776       -1.46193262        2.76160338
 C            2.58123443        0.96294009        2.25518289
 C            0.70789873        1.15880857        3.63472696
 C            1.45830990        1.82089282        2.59806220
 C           -0.59326965       -0.78707873        3.59980610
 C           -0.59041454        0.63518698        3.28495524
 C           -1.26196085       -1.65483537        2.74548044
 C            0.83811739       -2.86947594        2.27111257
 C           -0.53694917       -2.74050609        2.09215519
 C            2.62329127       -1.69896910        1.32869760
 C            1.71370503       -2.80930874        1.11265240
 C            2.79501270        0.68818985        0.90359719
 C            2.61255053       -0.62308482        0.43097672
 C            2.56106180        1.75051913        0.03838001
 C            0.77624267        2.40608828        1.54047257
 C            1.56981467        2.73015828        0.45104733
 C           -1.18889500        1.06389838        2.10101927
 C           -0.56571868        2.04673407        1.30540544
 C           -2.18035324       -1.09745450        1.77051689
 C           -2.20708851        0.27824724        1.55892284
 C           -1.10275680       -2.91616147        0.76173413
 C           -2.20281811       -1.97906293        0.61461398
 C            1.17922058       -2.98095794       -0.15312053
 C           -0.26074486       -3.14135132       -0.31484774
 C            2.15544766       -0.84772823       -0.87888299
 C            1.62265130       -2.09382589       -1.21004172
 C            2.34555370        1.49916635       -1.36999699
 C            2.03583646        0.21108925       -1.78609775
 C            0.95067676        3.26825418       -0.73283204
 C            1.56436035        2.61515076       -1.87735072
 C           -1.20562965        2.47792951        0.12933748
 C           -0.48053575        3.13467430       -0.86869062
 C           -2.89654336        0.73951522        0.44910518
 C           -2.46175344        1.96624151       -0.18499781
 C           -2.49917364       -1.42118072       -0.62892281
 C           -3.18688200       -0.20710410       -0.61369580
 C           -0.61270783       -2.59065641       -1.61165099
 C            0.62766759       -2.18600051       -2.25700722
 C           -1.74865337       -1.79159665       -1.75915697
 C            1.32557631        0.03718472       -2.98070730
 C            0.58193481       -1.19094017       -3.21654387
 C            0.51704861        2.35039943       -2.84437128
 C           -0.73572877        2.83136404       -2.26890449
 C            0.54277307        1.14070355       -3.52510631
 C           -2.88786465        1.90135829       -1.57736794
 C           -3.37123833        0.55158402       -1.83140667
 C           -1.94209058        2.23943110       -2.62498526
 C           -1.89991053       -1.10354732       -2.96628097
 C           -0.71428941       -0.82605145       -3.75993797
 C           -0.69593496        0.59725076       -4.05029957
 C           -2.74874524        0.07067946       -3.04160154
 C           -1.95611555        1.15720777       -3.59689560
