56
Modified xyz file
 C            1.05896156       -0.06053797        4.06926751
 C            2.38716107       -0.37910980        3.58547142
 C            2.31310944       -1.67985841        2.93666387
 C            0.22438063       -1.23198834        3.85157554
 C            0.91118545       -2.06454428        2.88886323
 C           -1.10012990       -0.75935034        3.53066216
 C            0.34917128        1.06903485        3.49245566
 C           -1.04545741        0.69589988        3.50150150
 C            0.86647660        1.71539253        2.36733640
 C            3.01933874        0.53718936        2.65939467
 C            2.23142584        1.61257580        2.07973580
 C            3.05832895       -1.60357456        1.69154632
 C            3.55514316       -0.24481057        1.55605954
 C            2.53391626       -2.22862498        0.57037332
 C            0.33117458       -2.33695998        1.64709126
 C            1.17620492       -2.75161538        0.62549679
 C           -1.70786805       -1.18080879        2.28326038
 C           -0.95679248       -1.86710510        1.33070483
 C           -1.87252439        1.12590476        2.39970266
 C           -2.50618786       -0.05919625        1.84520576
 C            0.00013710        2.27795365        1.41439078
 C           -1.38918149        2.07785507        1.50778799
 C            0.54739531        2.83112392        0.25352852
 C            2.68410803        1.75572462        0.70870548
 C            3.28362110        0.48874901        0.32632110
 C            1.85840075        2.39785192       -0.19360136
 C            2.66560063       -1.58117558       -0.72205756
 C            2.78613849       -0.19311749       -0.78468938
 C            0.68483244       -2.80177091       -0.73437100
 C            1.72396230       -2.25038071       -1.59442310
 C           -1.38776904       -1.82599418       -0.00566783
 C           -0.64022042       -2.47920868       -0.99820526
 C           -2.90230798        0.00029104        0.51931036
 C           -2.48570667       -1.01298524       -0.35176188
 C           -2.20148691        2.32747054        0.40109726
 C           -3.11934325        1.27479813        0.00433735
 C           -0.26903212        2.98573931       -0.93510371
 C           -1.64216650        2.88479790       -0.81814719
 C            1.68938703        1.82934693       -1.52025895
 C            2.08507437        0.51573562       -1.76878025
 C            0.41032892        2.30006541       -2.02874950
 C            1.33437869       -1.61311480       -2.75848904
 C            1.50163555       -0.16851079       -2.83690520
 C           -0.99955715       -2.35982181       -2.33799395
 C            0.01741944       -1.92658431       -3.28050815
 C           -2.96692033       -1.00127818       -1.66189409
 C           -2.22965623       -1.69154692       -2.69608911
 C           -3.40162485        1.43892986       -1.40474107
 C           -2.40325071        2.35449583       -1.93768133
 C           -3.40878926        0.25642672       -2.24077683
 C           -0.31397769        1.49762615       -2.90895963
 C            0.30918305        0.38137481       -3.47095538
 C           -0.48597193       -0.74072226       -3.94278917
 C           -1.91939266       -0.72263784       -3.74234372
 C           -1.70005153        1.65494226       -2.99877751
 C           -2.54221485        0.52963858       -3.37312631
