56
Modified xyz file
 C            1.35026760       -0.10327507        3.70744417
 C            2.60830494       -0.25985736        3.00148861
 C            2.58998504       -1.56090468        2.35628202
 C            0.50919980       -1.24757801        3.38210462
 C            1.23638776       -2.08346184        2.44973253
 C           -0.79053842       -0.74128903        2.98984278
 C            0.55844197        1.09392449        3.48828279
 C           -0.82351938        0.66633439        3.34281531
 C            1.04943721        2.10731724        2.66947334
 C            2.98878514        0.72192285        2.00129231
 C            2.24505443        1.89042874        1.86167293
 C            3.18748143       -1.41873344        1.03875161
 C            3.43356038        0.00028238        0.81813908
 C            2.67760500       -2.19263231        0.00345912
 C            0.60814364       -2.51023697        1.28356131
 C            1.41398263       -2.88121119        0.20936763
 C           -1.34053702       -1.14814009        1.77578357
 C           -0.73422456       -2.18076462        1.05335882
 C           -2.33032001       -0.35865704        1.17720871
 C           -1.72469322        1.48650057        2.68170681
 C           -2.65484498        0.87326815        1.75123037
 C            0.11841812        2.89494744        1.87791875
 C           -1.24793429        2.71149617        2.05178437
 C            1.99645006        2.44007642        0.53708329
 C            0.64909750        2.98115082        0.52410918
 C            3.23198928        0.55058873       -0.44466391
 C            2.47206660        1.78423857       -0.58794540
 C            2.66144818       -1.66628874       -1.35123062
 C            2.89100625       -0.31137775       -1.56629795
 C            0.81826140       -3.10855728       -1.09287951
 C            1.58526977       -2.33599950       -2.06596819
 C           -1.36813708       -2.66831541       -0.08529034
 C           -0.56522732       -3.17116351       -1.18982296
 C           -2.84825525       -0.70908014       -0.07746699
 C           -2.48565589       -1.92803605       -0.64420522
 C           -3.36113993        0.27795584       -0.92324587
 C           -3.14421355        1.94525052        0.91188258
 C           -2.12648620        2.98240119        0.92610133
 C           -3.44164314        1.65277990       -0.47121026
 C           -0.19688152        2.74428208       -0.56116150
 C           -1.55119740        3.02863134       -0.40700908
 C           -2.51409557        2.41837425       -1.29509150
 C            1.60156805        1.64162526       -1.74234057
 C            2.01012387        0.44079132       -2.44834679
 C            0.24501771        1.95215282       -1.63336397
 C            0.93025766       -1.67041186       -3.09722702
 C            1.07656549       -0.22781577       -3.22552100
 C           -1.20845420       -2.78071615       -2.43071801
 C           -2.40881390       -2.03442752       -2.09494464
 C           -0.45244960       -2.00414410       -3.39518826
 C           -2.87763047        0.34763630       -2.28866691
 C           -2.03676134        1.53277013       -2.33556797
 C           -0.66765030        1.37519324       -2.53194117
 C           -0.25307872        0.33833269       -3.36866141
 C           -2.42015855       -0.81618526       -2.88830545
 C           -1.16963512       -0.76139317       -3.62759547
