42
0 1
C       -3.756759   -0.484213    0.205148 
C       -3.362689   -0.913196   -1.046970 
C       -2.340901   -1.985874   -0.899522 
C       -2.936404   -1.234496    1.230665 
C       -2.051203   -2.158975    0.502797 
C       -2.339884   -0.290954    2.044405 
C       -3.397675    0.964460    0.341802 
C       -2.658622    1.094794    1.517416 
C       -2.689034    0.202111   -1.789798 
C       -2.769159    1.377959   -0.924407 
C       -1.283283   -1.667118   -1.801328 
C       -1.443259   -0.254861   -2.264049 
C       -0.020362   -2.111035   -1.473778 
C       -0.690832   -2.301739    0.904410 
C        0.217699   -2.640958   -0.147684 
C       -0.921868   -0.313306    2.353530 
C       -0.131459   -1.421391    1.955465 
C       -1.436101    1.848456    1.574477 
C       -0.390098    1.037382    2.226826 
C       -1.632755    2.168318   -0.870230 
C       -1.070140    2.581286    0.437757 
C       -0.267312    0.590844   -2.284336 
C       -0.481351    1.885655   -1.745780 
C        1.200224   -1.406494   -1.924566 
C        1.092608   -0.002658   -2.243665 
C        1.641751   -2.600078    0.056448 
C        2.270047   -1.930379   -1.156809 
C        1.280777   -1.212477    2.021884 
C        2.181633   -2.042494    1.203838 
C        0.993313    1.263435    1.998653 
C        1.847738    0.113675    2.079585 
C        0.315127    2.868545    0.263174 
C        0.647745    2.595865   -1.187752 
C        1.338238    2.320453    1.057314 
C        2.208658    0.796309   -1.833716 
C        1.920582    2.105233   -1.256236 
C        2.490403    2.106370    0.155202 
C        3.329242   -1.107458   -0.688125 
C        3.339422   -1.209088    0.824913 
C        3.139127    0.076459    1.347048 
C        3.284845    0.244695   -1.036123 
C        3.331971    1.046939    0.272119 
