42
0 1
C       -3.216488   -0.794075    0.985926 
C       -3.183238    0.674458    0.696716 
C       -3.052387    0.826158   -0.687335 
C       -2.943912   -1.502044   -0.294986 
C       -2.873507   -0.546375   -1.299569 
C       -1.783657   -2.362106   -0.058273 
C       -2.183164   -1.094999    1.871337 
C       -1.297642   -2.129350    1.287845 
C       -2.192585    1.273978    1.574276 
C       -1.582916    0.160108    2.367649 
C       -1.363165    2.262014    1.065881 
C       -2.056319    1.694535   -1.252842 
C       -1.364314    2.551932   -0.379085 
C       -1.740485   -0.466435   -2.209944 
C       -1.297072    0.936763   -2.272643 
C       -0.839172   -2.497593   -1.098722 
C       -0.794517   -1.480909   -2.190746 
C        0.481374   -2.817995   -0.734960 
C        0.089925   -2.139903    1.602747 
C        0.980098   -2.663544    0.604052 
C       -0.256901    0.160541    2.664208 
C        0.595482   -1.052320    2.434377 
C        0.046075    2.371179    1.533158 
C        0.583100    1.348599    2.365482 
C       -0.023566    2.944488   -0.740645 
C        0.848429    2.856303    0.482132 
C        0.046728    1.220676   -2.501645 
C        0.645455    2.328921   -1.786331 
C        0.620795   -1.175474   -2.454170 
C        1.425290   -2.106852   -1.669696 
C        1.046307    0.140232   -2.549770 
C        2.338023   -2.141682    0.476116 
C        2.534885   -1.714102   -0.965082 
C        1.910606   -0.592732    2.289624 
C        1.899037    0.906347    2.152541 
C        2.778818   -1.107404    1.277109 
C        2.096455    2.225962    0.100484 
C        1.999401    1.895607   -1.306074 
C        2.256316    0.597251   -1.795286 
C        2.962790   -0.311020   -0.953035 
C        2.659886    1.263374    0.969902 
C        3.199733    0.057490    0.399277 
