42
0 1
C        3.443213    1.157352    0.058288 
C        3.605111   -0.176548   -0.546308 
C        3.110124   -1.178280    0.455143 
C        2.803031    0.995295    1.301126 
C        2.651089   -0.447915    1.602663 
C        1.597873    1.850266    1.362132 
C        2.488304    1.895580   -0.816811 
C        1.478240    2.468546    0.074657 
C        2.760155   -0.257929   -1.661317 
C        2.036101    1.037598   -1.832883 
C        2.208785   -2.072724   -0.223661 
C        1.963564   -1.495326   -1.576128 
C        1.114124   -2.587650    0.482705 
C        1.468400   -0.857811    2.232926 
C        0.862995   -2.063491    1.792425 
C        0.421605    1.439123    2.088261 
C        0.363495    0.098774    2.563456 
C       -0.824818    2.055837    1.698036 
C        0.200438    2.716554   -0.464801 
C       -0.876282    2.759700    0.421477 
C        0.639104    1.031479   -2.243071 
C       -0.228059    1.999541   -1.703321 
C        0.702677   -1.507574   -2.091240 
C        0.052869   -0.248741   -2.590425 
C       -0.202528   -2.770146   -0.168030 
C       -0.362418   -2.320382   -1.466836 
C       -0.605124   -1.957047    1.980501 
C       -0.881659   -0.646656    2.519543 
C       -1.262524   -2.456591    0.835027 
C       -2.062744    1.366080    1.834146 
C       -2.098027   -0.030400    2.134351 
C       -2.109539    2.326690   -0.306999 
C       -1.682603    1.785783   -1.586095 
C       -2.889396    1.590073    0.582079 
C       -1.327383   -0.423505   -2.543459 
C       -1.631865   -1.737267   -1.867545 
C       -2.244248    0.568498   -2.004984 
C       -2.485338   -1.838385    0.441493 
C       -2.939377   -0.707954    1.164341 
C       -3.419434    0.331900    0.174503 
C       -2.674419   -1.558192   -0.989692 
C       -3.163514   -0.134155   -1.115672 
