42
0 1
C       -3.398507    0.301496   -0.572056 
C       -3.171802   -0.998729    0.124247 
C       -2.504910   -1.841087   -0.765680 
C       -2.591847    0.264784   -1.835844 
C       -2.098386   -1.020236   -1.977072 
C       -1.659845    1.382496   -1.801683 
C       -2.912637    1.334831    0.216454 
C       -1.978023    2.151567   -0.588611 
C       -2.558822   -0.700415    1.412843 
C       -2.424526    0.782893    1.510311 
C       -1.512924   -1.496542    1.852488 
C       -1.359351   -2.601340   -0.362852 
C       -0.988102   -2.573460    0.993468 
C       -0.699803   -1.267466   -2.226484 
C       -0.308341   -2.415300   -1.390121 
C       -0.306381    1.200948   -2.210072 
C        0.185560   -0.177355   -2.452593 
C        0.616903    2.191654   -1.707426 
C       -0.989734    2.861532    0.064300 
C        0.264685    3.009602   -0.604522 
C       -1.318096    1.349281    2.086314 
C       -0.694388    2.533858    1.483337 
C       -0.337865   -0.884626    2.536596 
C       -0.198235    0.512273    2.578316 
C        0.410715   -2.747167    1.311513 
C        0.815991   -1.641800    2.254381 
C        1.028412   -2.613482   -1.069645 
C        1.378263   -2.849281    0.333670 
C        1.587615   -0.482785   -2.247027 
C        1.981369   -1.674825   -1.605936 
C        2.027707    1.832810   -1.516674 
C        2.486231    0.581032   -1.778694 
C        1.361311    2.891351    0.445043 
C        0.702099    2.450754    1.659775 
C        1.056124    1.134047    2.228323 
C        2.386947    2.164597   -0.074395 
C        2.042429   -1.056190    1.788497 
C        2.497247   -1.903566    0.684724 
C        2.955991   -1.331845   -0.490758 
C        3.195015    0.061811   -0.535865 
C        2.160488    0.373644    1.704720 
C        2.871421    0.910237    0.544694 
