58
Modified xyz file
 C            1.48845069       -0.03557733        4.33384110
 C            0.69819266       -1.23037587        4.09518235
 C            1.54515686       -2.16153966        3.38632401
 C            2.63046174       -0.08602385        3.43549278
 C            2.72002492       -1.43153518        2.92172269
 C            2.49546672        1.00222828        2.49030855
 C            0.67733696        1.10644007        3.95256668
 C            1.39230743        1.84363949        2.92813014
 C           -0.54940609       -0.81990023        3.47341091
 C           -0.64900091        0.62278669        3.63456791
 C           -0.94730841       -1.40816098        2.26667389
 C            0.99866016       -2.84099038        2.23115336
 C           -0.30925829       -2.57575670        1.82023294
 C            2.79567741       -1.62503231        1.48361761
 C            2.04623302       -2.83615906        1.22674023
 C            2.65168839        0.77360180        1.12341966
 C            2.62383803       -0.53883001        0.62023918
 C            2.30998190        1.82468225        0.28432912
 C            0.65826925        2.51608241        1.95350838
 C            1.28788561        2.75938311        0.73612593
 C           -1.38112923        1.33781373        2.70489355
 C           -0.73565912        2.43218154        1.98739514
 C           -1.80415540       -0.69929680        1.41046828
 C           -2.15882274        0.60543983        1.72571637
 C           -2.10242441       -1.19133689        0.13874123
 C           -0.71028513       -3.15076323        0.61901576
 C           -1.71589140       -2.48759486       -0.19150947
 C            1.67839901       -3.11603845       -0.07581203
 C            0.33224256       -3.61216124       -0.28463170
 C            2.18220917       -0.78740298       -0.69092189
 C            1.90032957       -2.09234276       -1.08646063
 C            2.07123260        1.56942803       -1.11884760
 C            1.82153953        0.26738799       -1.53098042
 C            0.51064171        3.15631827       -0.42801015
 C            1.22086193        2.64214876       -1.59432537
 C           -1.50519317        2.63756835        0.76980924
 C           -2.44511360        1.53071273        0.65193857
 C           -0.88465587        3.10640323       -0.38464303
 C           -2.58861313       -0.33449871       -0.86394767
 C           -2.72486173        1.04270936       -0.61661526
 C           -2.69692568       -0.82725347       -2.16789137
 C           -1.43933423       -2.82155126       -1.58096436
 C           -0.05587256       -3.25220035       -1.63073949
 C            0.93031370       -2.31384489       -2.14382519
 C           -1.85405560       -1.93695230       -2.55859477
 C            1.00237408        0.04162334       -2.64802067
 C            0.46259853       -1.23242200       -2.88285703
 C           -0.83017846       -1.34369972       -3.39882978
 C            0.52492377        2.45841789       -2.77476846
 C            0.53661490        1.13744848       -3.38479426
 C           -1.58661651        2.98208824       -1.58159287
 C           -2.61461002        1.95596645       -1.66488366
 C           -0.84011793        2.93634223       -2.82447617
 C           -2.66589194        0.08683785       -3.29694143
 C           -1.44976255       -0.20786817       -4.04745957
 C           -0.68956114        1.01580747       -4.15504297
 C           -2.68767013        1.50650773       -3.03914205
 C           -1.57153740        2.09911406       -3.75803626
