58
Modified xyz file
 C            1.42114522        0.16551158        4.34167529
 C            0.64132397       -1.02671678        4.07853997
 C            1.50448916       -1.94929111        3.37682778
 C            2.59254248        0.11897206        3.47815754
 C            2.64830824       -1.19577220        2.88253259
 C            2.52451994        1.26862165        2.60131402
 C            0.62687786        1.30863854        3.93200494
 C            1.47965465        2.14327822        3.11722986
 C           -0.59918241       -0.62551257        3.43271976
 C           -0.60638257        0.82520741        3.33488660
 C           -1.07010815       -1.36306496        2.35279674
 C            0.94517556       -2.65556268        2.24717613
 C           -0.41553524       -2.55107407        1.98910183
 C            2.64458256       -1.30766407        1.43317595
 C            1.84388898       -2.47374718        1.12246243
 C            2.64341447        1.10668729        1.21613120
 C            2.49633849       -0.16743768        0.64377255
 C            2.41318630        2.23214045        0.43363734
 C            0.86102399        2.98729214        2.21420366
 C            1.58621273        3.28442633        0.99807950
 C           -1.05209540        1.43343261        2.15743054
 C           -0.50614943        2.66720548        1.80898417
 C           -1.87043688       -0.70950740        1.41394619
 C           -1.67531294        0.65467499        1.17315815
 C           -2.58054940       -1.47727264        0.50534276
 C           -0.84989113       -3.21001127        0.84772392
 C           -2.12377205       -2.83091165        0.27594942
 C            1.29285498       -2.59034678       -0.14686759
 C            0.10113325       -3.30819884       -0.24940352
 C            1.94964055       -0.31181611       -0.64055440
 C            1.54320282       -1.58236952       -1.08078554
 C            2.02675145        2.07952134       -0.95754212
 C            1.79121949        0.80627961       -1.47119454
 C            0.60632463        3.64833521        0.00193285
 C           -0.68714728        3.17197146        0.46365265
 C            1.08780267        3.14911393       -1.26905109
 C           -1.95879469        1.19770737       -0.09589865
 C           -1.46886958        2.46855062       -0.44452396
 C           -2.94129155       -0.90986581       -0.77802196
 C           -2.62384022        0.41642139       -1.06014233
 C           -2.03981769       -3.03891378       -1.15714689
 C           -0.64564556       -3.28336787       -1.49320524
 C           -2.72800389       -1.93428130       -1.79700761
 C            1.03872835       -1.73806804       -2.37015459
 C           -0.09884537       -2.62450292       -2.58552022
 C            1.08354345        0.69146814       -2.67192412
 C            0.85836779       -0.57121883       -3.21235996
 C            0.13236388        2.89893452       -2.23541059
 C           -1.24493279        2.76010694       -1.78712211
 C            0.34749240        1.78626029       -3.13306047
 C           -2.67181018        0.82947419       -2.39277428
 C           -1.94170929        2.00514514       -2.80077214
 C           -0.94110752        1.57422463       -3.76647186
 C           -2.31199243       -1.54560216       -3.06313864
 C           -0.99742250       -1.97297923       -3.52466551
 C           -0.30978698       -0.80885344       -4.04993656
 C           -2.47545087       -0.15626264       -3.44214909
 C           -1.29622633        0.24059001       -4.19774074
