58
Modified xyz file
 C            1.46830107        0.08120050        4.01662039
 C            0.67905199       -1.13224305        3.91344915
 C            1.20832632       -1.91949346        2.81443903
 C            2.53554335       -0.00808612        3.03802913
 C            2.48418060       -1.32770230        2.43893294
 C            2.43642354        1.14374200        2.16001651
 C            0.61046510        1.18903248        3.63306595
 C            1.18377183        1.81173648        2.46332144
 C           -0.71094188       -0.73844393        3.85440076
 C           -0.74100839        0.68781817        3.54231323
 C           -1.58320162       -1.56709477        3.16699912
 C            0.32811145       -2.36770786        1.82361428
 C           -1.03991374       -2.40963568        2.10306624
 C            0.76485216       -2.44649453        0.49609255
 C            2.91287032       -1.45338849        1.12932358
 C            2.11562468       -2.24293390        0.21404336
 C            2.78416226        0.98691864        0.82099527
 C            3.28266670       -0.24990937        0.40034202
 C            2.19443390        1.82891890       -0.12443042
 C            0.35953036        2.15335853        1.40085292
 C            0.96876503        2.43935512        0.18509711
 C           -1.56675995        1.12861725        2.50787482
 C           -1.01542483        1.85239012        1.42931606
 C           -2.79999444       -0.96913599        2.65897362
 C           -2.76914385        0.44547962        2.33839083
 C           -1.98992886       -2.40442647        1.00274547
 C           -3.16401470       -1.67634000        1.44721739
 C           -0.16341592       -2.45877915       -0.55278102
 C           -1.51728665       -2.22123311       -0.29434513
 C            0.28761763       -2.49542493       -1.87005563
 C            2.52299351       -1.85647052       -1.12708802
 C            3.24551533       -0.59525740       -1.01366041
 C            1.63660944       -2.05206618       -2.17494145
 C            2.61357308        1.71645504       -1.44947551
 C            3.02006563        0.41357668       -1.94036658
 C            1.87746740        2.37469230       -2.51000532
 C            0.19681152        3.03778224       -0.79877740
 C            0.64774782        3.05542427       -2.17657617
 C           -1.80958213        2.16349221        0.30782862
 C           -1.22450505        2.76764724       -0.80394993
 C           -3.52908158        0.61750412        1.12271088
 C           -3.75241230       -0.70484123        0.55241359
 C           -2.98423292        1.45636176        0.07977004
 C           -2.31380081       -1.55842637       -1.24472714
 C           -3.28374769       -0.66183229       -0.81583289
 C           -3.12520809        0.73469079       -1.17390110
 C           -0.58124735       -1.99691099       -2.91361216
 C           -1.81068500       -1.34376140       -2.52066143
 C            1.55119724       -1.06906136       -3.24512183
 C            2.23677223        0.13611914       -3.13429484
 C            1.57772606        1.37499749       -3.52378541
 C            0.18163681       -1.06817636       -3.73191534
 C           -0.41514464        2.49141934       -2.99359171
 C           -1.55556599        2.25296520       -2.12686729
 C           -2.27001008        1.05990143       -2.22463195
 C           -1.78257766        0.02225724       -3.02910931
 C            0.14025753        1.38658664       -3.74990900
 C           -0.55423580        0.18483628       -3.79784192
