58
Modified xyz file
 C            1.13509740       -0.21036457        3.99847837
 C            2.38118511       -0.37300347        3.27313050
 C            2.36971852       -1.69218030        2.66581094
 C            0.32673635       -1.39863171        3.76876062
 C            1.03683873       -2.24613722        2.82597626
 C           -1.02218179       -0.97003536        3.45056317
 C            0.30746321        0.95011082        3.72313605
 C           -1.05520657        0.48329560        3.51986009
 C            0.80824681        1.97836124        2.92984502
 C            2.72726208        0.58654025        2.23866202
 C            2.02057649        1.77590352        2.14222568
 C            2.90803283       -1.57112655        1.32530691
 C            3.03373994       -0.15298639        1.02515936
 C            2.40115031       -2.40475419        0.34259679
 C            0.37185894       -2.73602092        1.70159558
 C            1.11209289       -3.05118392        0.56292215
 C           -1.71096711       -1.62647211        2.43892733
 C           -1.01084903       -2.58958562        1.59892592
 C           -2.63673835       -0.88692912        1.59474957
 C           -1.91005140        1.19615164        2.68530562
 C           -2.74488220        0.48856602        1.72500056
 C           -0.10589147        2.78018084        2.13146205
 C           -1.44851142        2.42360086        2.05420785
 C            1.79172328        2.35197804        0.83073043
 C            0.60370112        3.18007428        0.92564649
 C            2.59727531        0.32026258       -0.21538180
 C            1.99826797        1.58464454       -0.31589516
 C            2.40874465       -1.93845164       -1.02927267
 C            2.52231283       -0.57324659       -1.28678852
 C            0.45034573       -3.16515113       -0.73168694
 C            1.40528932       -2.71322244       -1.73610842
 C           -1.64614833       -2.57428816        0.28978705
 C           -2.59813471       -1.47429037        0.26769083
 C           -0.90118973       -2.83961224       -0.85478895
 C           -2.67084698       -0.66814349       -0.86714385
 C           -2.84788389        1.30817103        0.53069104
 C           -2.15619684        2.56325482        0.79232000
 C           -2.76507026        0.72469420       -0.73564003
 C           -0.10804709        3.45042989       -0.23362643
 C           -1.54825660        3.23051721       -0.26295265
 C            1.40659101        1.99035191       -1.51722636
 C            0.42675784        2.98541408       -1.50175294
 C            2.16908734       -0.10236669       -2.54521420
 C            1.55628845        1.20669341       -2.65992632
 C            0.94551338       -2.24783696       -2.95888895
 C            1.48677586       -0.99822552       -3.46717509
 C           -1.38756983       -2.37584264       -2.07546922
 C           -2.28849747       -1.23202283       -2.08434074
 C           -0.48383307       -2.24208123       -3.20416632
 C            0.45825425        1.10683409       -3.61485071
 C            0.40521183       -0.26041484       -4.09633591
 C           -1.92710510       -0.38323895       -3.20746750
 C           -0.81899245       -1.01386743       -3.90630216
 C           -2.51981186        1.54899215       -1.83398261
 C           -1.90302556        2.84547249       -1.61764281
 C           -0.69231209        2.88749415       -2.41918214
 C           -1.93238955        0.99436406       -3.03921549
 C           -0.73154903        1.76936089       -3.34104937
