58
Modified xyz file
 C            1.26909085        0.15705686        4.01793955
 C            2.50672748       -0.04484765        3.29420013
 C            2.52514494       -1.42293787        2.83663943
 C            0.43473886       -1.01869010        3.80266394
 C            1.16797739       -1.93060260        2.94705742
 C           -0.87293579       -0.56145025        3.37143305
 C            0.47054283        1.32101561        3.69532659
 C           -0.90246000        0.87208414        3.55358115
 C            0.79274713        2.09203524        2.50359034
 C            2.78550999        0.78425252        2.13516972
 C            1.81321912        1.67097318        1.66080531
 C            3.17204727       -1.44074501        1.53382873
 C            3.49629656       -0.06086735        1.19350746
 C            2.65876396       -2.28136729        0.55289465
 C            0.54827110       -2.43687127        1.80887626
 C            1.34703228       -2.87780769        0.75398989
 C           -1.42337087       -1.08236430        2.20469138
 C           -0.80589938       -2.17409063        1.57985699
 C           -2.38566173       -0.33249996        1.51260152
 C           -1.50641461        1.66747713        2.50799026
 C           -0.46510525        2.50082561        1.92186456
 C           -2.40785058        1.06482248        1.63816480
 C           -0.54544510        2.76447191        0.55842711
 C            1.73374636        1.94066673        0.29081663
 C            0.52876842        2.40507218       -0.27820668
 C            3.52855784        0.32587295       -0.13685736
 C            2.77901741        1.50674289       -0.52406600
 C            2.75516461       -1.89489543       -0.84611131
 C            3.31503076       -0.66769089       -1.17814518
 C            0.75753984       -3.09756716       -0.55583558
 C            1.53799013       -2.33705813       -1.51769590
 C           -1.42511071       -2.77408972        0.48728168
 C           -0.62131370       -3.11677008       -0.67443446
 C           -3.11807867       -0.94461263        0.49783714
 C           -2.68227571       -2.23541747        0.00352525
 C           -3.55240218       -0.16309034       -0.64770000
 C           -2.79532868        1.83582810        0.54684750
 C           -1.83274448        2.79563813        0.03401381
 C           -3.45815744        1.22140939       -0.58880380
 C           -2.02016918        2.90054994       -1.39018640
 C           -3.07644644        1.97356536       -1.77281719
 C            0.37371254        2.44122046       -1.68191044
 C           -0.88289190        2.66086293       -2.24483913
 C            2.58866248        1.42377647       -1.95155651
 C            2.81472573        0.03854290       -2.34236228
 C            1.31570937        1.82319431       -2.49925444
 C            0.89377258       -1.49428247       -2.42644594
 C            1.59812830       -0.42872524       -2.98445379
 C            0.87797368        0.76010663       -3.39066840
 C           -1.23303302       -2.47642951       -1.82348294
 C           -2.59751533       -2.15310428       -1.44645688
 C           -3.14928298       -0.87673932       -1.85604116
 C           -0.49716705       -1.56132446       -2.57746206
 C           -2.62957230        1.25589839       -2.95041720
 C           -1.32366624        1.77805978       -3.31290607
 C           -0.47403110        0.65606407       -3.66958619
 C           -2.52898113       -0.19043635       -2.89369988
 C           -1.17329828       -0.56071084       -3.28301909
