58
Modified xyz file
 C            1.45747733       -0.01094113        4.01693048
 C            0.67433613       -1.23121301        4.05349119
 C            1.35821602       -2.21415468        3.23428737
 C            2.44677154       -0.15191662        2.96063129
 C            2.34434202       -1.49491900        2.43373177
 C            2.28120371        0.95893480        2.04547937
 C            0.56854903        1.06906101        3.63598887
 C            1.19829668        1.78691283        2.54746659
 C           -0.70451702       -0.89626434        3.73404416
 C           -0.75004499        0.51637358        3.39557078
 C           -1.44871318       -1.79510104        2.98510763
 C            0.59946198       -3.21015136        2.63185334
 C           -0.85063675       -3.07155746        2.61697838
 C            1.00518939       -3.69818853        1.32667191
 C            2.37080344       -1.68094199        1.05433678
 C            1.93029346       -2.89990924        0.54153101
 C            2.34346778        0.72870100        0.67092056
 C            2.51538726       -0.58004072        0.19499867
 C            1.81782556        1.71086197       -0.18093783
 C            0.37968058        2.38409373        1.60357838
 C            0.94451797        2.66126441        0.36628221
 C           -1.42590341        0.94411184        2.25460322
 C           -0.99426751        2.12551302        1.64898487
 C           -2.20330470       -1.31232942        1.83969462
 C           -2.17004966        0.03569274        1.49009228
 C           -1.32281120       -3.41755691        1.28687239
 C           -0.19291825       -3.88763064        0.52148991
 C           -2.07958285       -2.29149500        0.77769979
 C            1.47390282       -2.97252378       -0.83202958
 C            0.05990139       -3.28688336       -0.77366305
 C            2.52840227       -0.80138676       -1.17969488
 C            1.87733191       -1.98787588       -1.71452534
 C            1.91309417        1.54811228       -1.56928280
 C            2.23112425        0.29618863       -2.08565068
 C            1.34337795        2.48841875       -2.42638631
 C            0.25253046        3.53678526       -0.45697360
 C            0.53007543        3.55008459       -1.87536634
 C           -1.79116569        2.66535686        0.64504652
 C           -1.18414233        3.60513528       -0.28312334
 C           -2.51853819        0.38652892        0.18111808
 C           -2.59572955        1.74186590       -0.13328605
 C           -1.85993454       -1.82290092       -0.51454059
 C           -0.84159906       -2.37005639       -1.31424051
 C           -2.36719535       -0.56515882       -0.83779822
 C            0.92382629       -1.52386325       -2.70672608
 C            1.43131522       -0.24737004       -3.17513028
 C           -0.44341477       -1.67574984       -2.45961451
 C            0.68484990        2.02696687       -3.63791218
 C            0.58081866        0.59757933       -3.87211212
 C           -0.74542610        3.55117857       -2.57823100
 C           -1.79500143        3.40890153       -1.58425507
 C           -2.56850355        2.17744955       -1.52046121
 C           -0.65894702        2.58244356       -3.65303320
 C           -2.33651268       -0.17339895       -2.17186972
 C           -1.33517983       -0.77395168       -3.03148374
 C           -0.83119349        0.26001506       -3.92190923
 C           -2.45692023        1.22863098       -2.52851044
 C           -1.59421731        1.47226791       -3.67673450
