58
Modified xyz file
 C            1.32645780       -0.14681325        3.56515115
 C            2.39977586       -0.35486077        2.60983403
 C            2.36369690       -1.75765742        2.21969302
 C            0.45767394       -1.31286687        3.51233855
 C            1.08250215       -2.29825008        2.64767602
 C           -0.88064773       -0.84624870        3.19534356
 C            0.49179209        1.03355036        3.44343402
 C           -0.89390508        0.58929135        3.41148054
 C            0.90102305        2.06175636        2.60443839
 C            2.68068306        0.62462813        1.65513188
 C            2.02284304        1.85283950        1.69826526
 C            3.36177830        0.27068899        0.49471731
 C            2.89884631       -2.13440942        0.99408609
 C            3.59499760       -1.13439886        0.20674243
 C            2.11134287       -2.95004813        0.07965323
 C            0.29044977       -2.98940204        1.73959126
 C            0.83780084       -3.37355877        0.44762690
 C           -1.54999067       -1.38168157        2.09537104
 C           -1.08982610       -2.57319796        1.53236958
 C           -2.50839665       -0.61174982        1.42677315
 C           -1.84376644        1.35233525        2.74886943
 C           -2.78332228        0.68220956        1.86805333
 C           -0.09487333        2.86178222        1.90971024
 C           -1.44411100        2.58870192        2.09296096
 C            1.73454730        2.55508729        0.45586992
 C            0.41013654        3.14836421        0.57325802
 C            3.03142597        0.93336346       -0.75820173
 C            2.14088109        2.00594200       -0.75898623
 C            3.28430370       -1.36422341       -1.19407055
 C            2.35615201       -2.47405414       -1.27452003
 C            2.90937422       -0.09195633       -1.78394030
 C            1.30868371       -2.40218792       -2.18398778
 C           -0.24701453       -3.34406471       -0.52194864
 C           -1.45578867       -2.92385726        0.17136854
 C           -0.00534702       -2.91047766       -1.82107754
 C           -3.00940593       -1.03113640        0.19326773
 C           -2.40567212       -2.16079435       -0.49126230
 C           -3.37324533       -0.04627010       -0.81618091
 C           -3.25957038        1.67327877        0.91921460
 C           -2.36162516        2.81590770        0.99237565
 C           -3.39763689        1.30074678       -0.47763649
 C           -0.44649623        3.13676089       -0.52635790
 C           -1.82679974        3.04045021       -0.33858992
 C           -2.63086671        2.25459340       -1.26447802
 C            1.38720114        2.25421374       -1.90520279
 C            0.08832678        2.90032716       -1.78881162
 C            1.84009076       -0.02926579       -2.67146777
 C            1.11621225       -1.18944043       -2.96980213
 C            1.27821671        1.21838471       -2.92181557
 C           -1.00193137       -2.10991035       -2.51629148
 C           -2.19380486       -1.78016397       -1.88001595
 C           -2.78338661       -0.46457492       -2.07848947
 C           -0.30004692       -1.10985738       -3.30622187
 C           -2.07959468        1.86488896       -2.47883661
 C           -0.76765089        2.37021298       -2.83660131
 C           -0.04336968        1.30896948       -3.51542671
 C           -2.14458445        0.46883917       -2.88924918
 C           -0.88453830        0.12926423       -3.53519504
