58
Modified xyz file
 C            1.46404004        0.04205781        4.00879521
 C            0.69162922       -1.16349316        3.81148068
 C            1.25421967       -1.89347778        2.68433470
 C            2.60288149       -0.03142590        3.11991574
 C            2.42410839       -1.17499087        2.23734994
 C            2.72570807        1.26843004        2.49911153
 C            0.64027818        1.15293533        3.55714983
 C            1.39344402        1.85590736        2.54301517
 C           -0.69175941       -0.75411661        3.70550541
 C           -0.65792127        0.61384480        3.20773503
 C           -1.53794131       -1.63379016        3.06440792
 C            0.36105201       -2.40790629        1.75418049
 C           -0.91773900       -2.65884534        2.23943523
 C            0.52125699       -2.09186583        0.39052232
 C            2.63510938       -0.97522747        0.87929499
 C            1.63387138       -1.34796289       -0.03783571
 C            3.39127295        1.31023833        1.28846770
 C            3.50656856        0.05932898        0.55063017
 C            2.94775428        2.27608428        0.30889646
 C            0.77841589        2.18673863        1.33798426
 C            1.59744806        2.63912677        0.30287086
 C           -1.20275501        0.88609694        1.94861531
 C           -0.51079316        1.70283848        1.04142641
 C           -2.56050902       -1.07715140        2.21354405
 C           -2.25701421        0.08456066        1.49419342
 C           -1.93450212       -3.11770968        1.32773294
 C           -3.07732133       -2.23340182        1.51698020
 C           -0.51083288       -2.38463010       -0.52158153
 C           -1.63526469       -3.09591562       -0.08321764
 C           -0.51873442       -1.78229442       -1.79162477
 C            1.67975965       -0.87629130       -1.36116901
 C            0.53212434       -0.93284142       -2.16203029
 C            3.69891191        0.40511104       -0.83713624
 C            3.58270832        1.85328982       -0.92406323
 C            2.78425784       -0.14907748       -1.80628064
 C            2.93093388        2.15932885       -2.17472747
 C            2.58079240        0.88768614       -2.79387168
 C            1.00990248        3.09514914       -0.87066343
 C            1.72770114        2.96564890       -2.13100077
 C           -1.07268504        1.95886128       -0.21418858
 C           -0.38643873        2.77645623       -1.12014621
 C           -2.74493720        0.24380214        0.18881829
 C           -2.17221515        1.20936462       -0.65488918
 C           -3.66985381       -2.03334821        0.22273766
 C           -2.91943694       -2.86200297       -0.70832158
 C           -3.64401342       -0.69965249       -0.33400064
 C           -1.68572317       -1.79155824       -2.56798311
 C           -2.94573573       -2.17498689       -1.97300168
 C           -3.67962774       -0.93423659       -1.75892512
 C           -2.49319813        1.22459592       -2.01649413
 C           -2.00756153       -0.61265946       -3.33496552
 C           -3.08758949        0.05270050       -2.62272013
 C            0.33149647        0.01991905       -3.18302068
 C            1.26147510        1.03400501       -3.35772843
 C            0.80961192        2.38860557       -3.08586378
 C           -0.53231509        2.54734450       -2.55217824
 C           -0.97046674        0.36987321       -3.50506435
 C           -1.47384829        1.62093005       -2.96043814
