58
Modified xyz file
 C            1.30878044       -0.09559010        3.84818966
 C            2.56485297       -0.33211354        3.16266024
 C            2.50559403       -1.65758341        2.56498410
 C            0.48981469       -1.28916790        3.70506874
 C            1.20166078       -2.22568939        2.85783045
 C           -0.84607521       -0.86933012        3.32228336
 C            0.49840709        1.04953198        3.46856155
 C           -0.86363190        0.58607909        3.27833384
 C            1.01262747        2.00209577        2.60297558
 C            2.99484739        0.59756444        2.13287217
 C            2.28719389        1.77882364        1.92929156
 C            2.93118047       -1.54050508        1.17911534
 C            3.42466788       -0.18859159        0.98800108
 C            2.17318475       -2.13799062        0.17317759
 C            0.50981569       -2.87066709        1.84289371
 C            1.11211514       -2.97476176        0.52266904
 C           -1.54768662       -1.57877059        2.34835706
 C           -0.91282704       -2.61135796        1.65220104
 C           -2.65720032       -0.96381703        1.77258437
 C           -1.70273773        1.21076881        2.35692942
 C           -2.80421690        0.47278524        1.92520758
 C            0.12050610        2.65353409        1.66307539
 C           -1.21997709        2.28171923        1.58160668
 C            2.18863720        2.33815951        0.58963771
 C            0.85650942        2.89444470        0.43129094
 C            3.37285549        0.36414246       -0.28308275
 C            2.77967502        1.68114912       -0.47812386
 C            2.28104549       -1.67111136       -1.14050218
 C            2.94742151       -0.47072633       -1.39320391
 C            1.46603044       -2.21908468       -2.13023629
 C            0.03104303       -3.19907446       -0.42087341
 C           -1.20425918       -2.80780661        0.23761572
 C            0.21985597       -2.85928095       -1.74779583
 C           -3.01515285       -1.27749077        0.39853945
 C           -2.09378814       -1.94427485       -0.39694024
 C           -3.62476691        0.94476975        0.83020310
 C           -3.72935097       -0.14024059       -0.13642607
 C           -1.92837965        2.72160568        0.46256936
 C           -3.20772027        2.13183115        0.12455141
 C            0.18447794        2.78647628       -0.78615778
 C           -1.20169720        2.95406062       -0.77835596
 C            2.10720675        1.67596302       -1.76595021
 C            2.45436996        0.42574905       -2.42542235
 C            0.81235215        2.18387694       -1.88569647
 C            1.20252020       -1.46210620       -3.34418940
 C            1.62277506       -0.07349793       -3.41718889
 C           -0.84497034       -2.16323614       -2.44543268
 C           -1.82726768       -1.50212936       -1.70261978
 C           -0.23144182       -1.51147714       -3.58758814
 C           -3.33796966        0.37584655       -1.42848515
 C           -3.18621862        1.81552104       -1.29244807
 C           -2.01094472        2.44236171       -1.87398511
 C           -2.40333746       -0.31514172       -2.19517737
 C            0.06440883        1.84830620       -3.01315528
 C            0.47527788        0.71458711       -3.82936849
 C           -0.66679771       -0.18150424       -3.94261932
 C           -1.38079276        1.79005178       -2.92005925
 C           -1.75250237        0.41231454       -3.19219301
