58
Modified xyz file
 C            1.54754939        0.05324933        4.28492770
 C            0.70077957       -1.12367463        4.22385317
 C            1.40829009       -2.13971187        3.46835055
 C            2.68513153       -0.17355844        3.40783660
 C            2.62720491       -1.53940625        2.94709621
 C            2.69307458        0.88014593        2.41403313
 C            0.78982174        1.17061625        3.74692341
 C            1.57797872        1.77336061        2.69621383
 C           -0.61094081       -0.70560452        3.76317395
 C           -0.53644670        0.70288547        3.40681345
 C           -1.33232689       -1.55383152        2.93724883
 C            0.72195281       -2.79076142        2.36373209
 C           -0.64770390       -2.63398744        2.22805472
 C            2.66016910       -1.77885387        1.51912437
 C            1.55779005       -2.66685345        1.18341798
 C            2.97978099        0.58916892        1.07780073
 C            2.97331444       -0.74759245        0.63312787
 C            2.74403388        1.61942358        0.16720627
 C            0.92091286        2.34280767        1.61208748
 C            1.69138197        2.57162484        0.47762745
 C           -1.09975391        1.13021225        2.20430270
 C           -0.45691183        2.12841766        1.46083418
 C           -2.26711867       -0.96856073        1.99634815
 C           -2.10916144        0.36232344        1.61030402
 C           -1.22759542       -2.70468352        0.89907619
 C           -2.47382033       -1.96748461        0.96995184
 C            0.98159907       -2.55620790       -0.08428562
 C           -0.41391621       -2.54944201       -0.22749155
 C            2.78329189       -1.02681419       -0.71897163
 C            1.76993261       -2.00570260       -1.08604955
 C            2.69426686        1.35384707       -1.25785193
 C            2.74225935        0.04250901       -1.69775336
 C            1.05439828        2.96718279       -0.76349612
 C            1.73920838        2.28127577       -1.84949123
 C           -1.10707896        2.65717900        0.34956992
 C           -0.32588402        3.10679196       -0.79356242
 C           -2.69005466        0.78031662        0.40896494
 C           -2.29465606        1.99148858       -0.15660535
 C           -3.05218395       -1.56237530       -0.21422487
 C           -3.37779277       -0.15600167       -0.36657405
 C           -1.00839124       -2.13181999       -1.43092280
 C           -2.39378982       -1.93629945       -1.44732602
 C            1.16436334       -1.57895322       -2.32812746
 C            1.86902612       -0.38629348       -2.77826452
 C           -0.21396320       -1.66133694       -2.49015236
 C            1.02976918        1.91100381       -2.98707598
 C            1.17644141        0.56323418       -3.51829042
 C           -1.05791279        2.77179903       -2.00419213
 C           -2.32639722        2.17745100       -1.60225757
 C           -0.37012232        2.28630504       -3.11372184
 C           -3.54489522        0.06263713       -1.79449221
 C           -3.00691362       -1.11233683       -2.46915646
 C           -2.95001053        1.23239015       -2.40960349
 C           -0.78446230       -0.97987454       -3.56918559
 C           -0.09611050        0.18186821       -4.10428333
 C           -1.00174364        1.31413360       -3.98639889
 C           -2.19588691       -0.65841082       -3.57115186
 C           -2.30977721        0.79078479       -3.63704111
