58
Modified xyz file
 C            1.30915079       -0.04880096        4.19244658
 C            0.49902985       -1.21100642        3.86316978
 C            1.35550504       -2.15840601        3.19615935
 C            2.54331179       -0.14967545        3.43464814
 C            2.63932627       -1.50649436        2.95564343
 C            2.55886641        0.92785514        2.46386452
 C            0.59962473        1.12638843        3.72165264
 C            1.43114632        1.80476990        2.75147682
 C           -0.68309266       -0.74207383        3.16911481
 C           -0.71103365        0.70438395        3.28716645
 C           -1.06962660       -1.31220443        1.95033918
 C            0.92030958       -2.71714202        1.93035039
 C           -0.25807260       -2.27078491        1.32262793
 C            2.96368826       -1.72397498        1.56125904
 C            2.11796361       -2.81960940        1.12353828
 C            2.88762463        0.67193445        1.13108577
 C            3.15746895       -0.63940537        0.69945230
 C            2.58282047        1.66344131        0.19912455
 C            0.80065952        2.44562931        1.68805499
 C            1.52536691        2.61211593        0.50998979
 C           -1.30534893        1.40230511        2.25191392
 C           -0.59890648        2.43763319        1.62718650
 C           -2.00862369       -0.61444086        1.18567856
 C           -2.25879614        0.72474776        1.50830933
 C           -2.38528496       -1.11046221       -0.06413718
 C           -0.43814772       -2.53715834       -0.03920222
 C           -1.56047313       -2.04083852       -0.70962297
 C            1.97284897       -3.02781885       -0.23467664
 C            0.62807880       -3.05876707       -0.78408237
 C            3.23468066       -0.91733306       -0.66618913
 C            2.77421970       -2.21528310       -1.13312543
 C            2.48666094        1.34473528       -1.21452125
 C            2.80949672        0.07336335       -1.64191040
 C            0.83230279        2.92505146       -0.72990123
 C            1.28924674        1.98090034       -1.73474935
 C           -1.22424214        3.10914546        0.57594573
 C           -0.51162948        3.25157089       -0.68514072
 C           -3.10584011        1.48712047        0.71999138
 C           -2.60272196        2.76380766        0.25293593
 C           -3.43222410       -0.49093458       -0.75185796
 C           -3.80959839        0.85758097       -0.37668826
 C           -3.46374210       -0.52640105       -2.19904467
 C           -1.61095955       -2.17937913       -2.09978921
 C           -2.48048285       -1.32841369       -2.88517664
 C            0.74749338       -2.72510993       -2.19328030
 C            2.00296298       -2.01183821       -2.34615997
 C            1.95281419       -0.58485235       -2.61482930
 C           -0.36461173       -2.21046866       -2.83203206
 C            0.35628305        1.22968288       -2.45289364
 C           -1.60983256       -0.41916053       -3.62263748
 C            0.72482078       -0.02351666       -2.96978737
 C           -0.25593363       -0.89461552       -3.43996395
 C           -1.38408522        2.75403781       -1.73417600
 C           -2.73172536        2.77293234       -1.19244829
 C           -3.64484525        1.70574341       -1.55075095
 C           -3.28409154        0.84121735       -2.65461453
 C           -0.97288859        1.67750912       -2.52566868
 C           -1.93691170        0.92076721       -3.19406795
