58
Modified xyz file
 C            1.49164376       -0.18696243        4.41613052
 C            0.63875511       -1.36086294        4.41613052
 C            1.20986654       -2.32597114        3.49349577
 C            2.58599933       -0.43188684        3.49349577
 C            2.35627551       -1.71193436        2.84578713
 C            2.71935786        0.74356461        2.65763715
 C            0.72181948        0.92138214        3.87938768
 C            1.52803757        1.55824573        2.85758349
 C           -0.65323201       -0.97121386        3.87938768
 C           -0.58541000        0.42532526        3.49744240
 C            0.13315582       -2.81603712        2.65763715
 C           -1.00979018       -1.93477450        2.85758349
 C            0.44083542       -3.19527703        1.35881340
 C            2.47432555       -1.79770274        1.45633130
 C            1.67894644       -2.70958142        0.76001064
 C            3.17511467        0.56813551        1.35881340
 C            3.09578805       -0.75946624        0.76001064
 C            2.75251343        1.51915274        0.34556606
 C            0.89107673        2.07212492        1.73293210
 C            1.67540165        2.35536846        0.61697287
 C           -1.08920562        0.79135421        2.25326764
 C           -0.47779141        1.82570766        1.54879277
 C           -1.69535006       -1.48778614        1.73293210
 C           -1.88399684       -0.10976806        1.54879277
 C           -0.59422668       -3.08723985        0.34556606
 C           -1.72236094       -2.32125054        0.61697287
 C            1.43998288       -2.53228209       -0.66728491
 C            0.06408228       -2.92328960       -0.93913072
 C            2.85332256       -0.58698690       -0.66728491
 C            2.80001614        0.84240030       -0.93913072
 C            1.98654672       -1.44331067       -1.33818722
 C            1.99236374        1.31812825       -1.96861434
 C            1.07667911        3.00733191       -0.44906497
 C            1.39280718        2.56507511       -1.79771430
 C           -1.09219244        2.29578081        0.38772837
 C           -0.35869217        3.17182918       -0.41053437
 C           -2.52092333        0.32930145        0.38772837
 C           -2.15731226        1.56737911       -0.16732224
 C           -2.52743046       -1.95329935       -0.44906497
 C           -3.12743078       -0.63901260       -0.41053437
 C           -0.63794020       -2.30217454       -1.96861434
 C           -2.00913031       -2.11729015       -1.79771430
 C            1.38594578       -1.00694855       -2.51451015
 C            1.44840378        0.40316928       -2.87158814
 C            0.06414461       -1.50210002       -2.87158814
 C            0.24286974        0.72511701       -3.62631589
 C           -0.61457638       -0.45505633       -3.62631589
 C            0.28281799        2.96741222       -2.64561791
 C           -0.77571630        3.45136040       -1.76925116
 C           -0.30712816        2.00031332       -3.54840288
 C           -2.75049562        1.99835204       -1.36024014
 C           -2.02496286        2.89764004       -2.23532941
 C           -1.74762102        2.16613744       -3.46248619
 C           -3.52214832       -0.32877897       -1.76925116
 C           -2.73478117       -1.18595670       -2.64561791
 C           -1.99731883       -0.32603458       -3.54840288
 C           -3.38156738        1.03043411       -2.23532941
 C           -2.60016372        0.99271307       -3.46248619
