58
Modified xyz file
 C            1.11653809        0.03989205        4.05168137
 C            2.34417218       -0.26654834        3.35516113
 C            2.26533472       -1.65503584        2.92880020
 C            0.28798777       -1.15696342        4.01859258
 C            0.86925691       -2.03792538        3.02744753
 C           -1.08046665       -0.72894676        3.84583363
 C            0.29493325        1.12811882        3.56333080
 C           -1.07685205        0.72511359        3.80754635
 C            0.60335981        1.75624090        2.35307742
 C            2.67887893        0.50286705        2.17738955
 C            1.73340323        1.36700175        1.61650333
 C            2.91851816       -1.74589587        1.63424989
 C            3.39596034       -0.40917417        1.30700839
 C            2.30900336       -2.50333266        0.64176092
 C            0.17203960       -2.33596966        1.85367820
 C            0.89639432       -2.83823128        0.77687229
 C           -1.79884591       -1.16839713        2.66955067
 C           -1.12129515       -1.83158344        1.64135806
 C           -2.09512570        1.13492017        2.85767022
 C           -2.69799736       -0.08188073        2.33065326
 C           -0.39632930        2.49970322        1.73059829
 C           -1.79528470        2.16954696        1.98114414
 C           -0.26705539        2.84588746        0.32789711
 C            1.84061408        1.68641227        0.25497227
 C            0.77798711        2.30764664       -0.41439771
 C            3.54559648       -0.05133881       -0.02282221
 C            2.91799409        1.17754425       -0.46921718
 C            2.55824146       -2.17550621       -0.75262387
 C            3.29580170       -1.04033536       -1.06021759
 C            0.31027750       -2.84044964       -0.54717831
 C            1.34622142       -2.47583699       -1.50214337
 C           -1.67678489       -1.81808749        0.35277048
 C           -0.97586235       -2.35380888       -0.73454086
 C           -3.25221779       -0.06844981        1.06106561
 C           -2.86028007       -1.11081623        0.13111809
 C           -2.49932968        2.24694310        0.71335843
 C           -1.60391033        2.88269451       -0.23976037
 C           -3.28935425        1.17587669        0.30696728
 C           -1.76007233        2.63607967       -1.59526085
 C            0.66091104        2.23124742       -1.81129545
 C           -0.57498085        2.46065901       -2.41461113
 C            2.83143777        1.09362451       -1.90970381
 C            2.98715484       -0.30933588       -2.27362235
 C            1.63620079        1.58053279       -2.56108001
 C            0.99362822       -1.72409494       -2.62351792
 C            1.82078032       -0.68399413       -3.05573760
 C            1.22796838        0.56259952       -3.51552052
 C           -1.36612689       -2.04786683       -2.03894676
 C           -0.34051104       -1.73825025       -3.02481437
 C           -3.16991035       -0.62386903       -1.19880467
 C           -3.34446476        0.82268554       -1.10295480
 C           -2.74375892        1.65909000       -2.03857823
 C           -2.50163579       -1.17415204       -2.28204712
 C           -0.95606023        1.65157669       -3.56122733
 C           -0.08356430        0.56205625       -3.96909060
 C           -0.84397095       -0.67022977       -3.87248252
 C           -2.27511971        1.10051092       -3.29525596
 C           -2.18942817       -0.34076478       -3.43060402
