58
Modified xyz file
 C            1.56462885        0.05741717        3.92300500
 C            0.74508555       -1.13463016        3.83310705
 C            1.30554183       -1.99377353        2.80555131
 C            2.58858683       -0.03041480        2.89586964
 C            2.40546361       -1.27008109        2.17942008
 C            2.55054614        1.19561567        2.13822987
 C            0.71665194        1.19258326        3.60013833
 C            1.38906255        1.95431200        2.57987542
 C           -0.63159304       -0.70964856        3.68711765
 C           -0.60632314        0.69454866        3.30377293
 C           -1.49197201       -1.55577531        3.01137637
 C            0.43248792       -2.72367814        1.99938078
 C           -0.93396129       -2.69616588        2.29474382
 C            0.86235684       -3.09007493        0.72247905
 C            2.50295786       -1.27040378        0.79169492
 C            1.96872588       -2.36526590        0.11755136
 C            2.80706597        1.15905452        0.77019433
 C            2.75802295       -0.07464793        0.09494766
 C            2.50024920        2.32726153        0.07269046
 C            0.63748389        2.58097692        1.59727827
 C            1.38595178        3.11973665        0.56263364
 C           -1.22934164        1.08901377        2.11725981
 C           -0.65680239        2.09808898        1.31377152
 C           -2.48786257       -0.97147768        2.13687241
 C           -2.28433082        0.31103147        1.62891486
 C           -1.90634456       -3.07318089        1.28174888
 C           -2.91779740       -2.02738016        1.23756924
 C           -0.09677525       -3.39772881       -0.33110568
 C           -1.45894377       -3.31565593       -0.07488890
 C            1.74392218       -2.30969771       -1.31513639
 C            0.43679662       -2.88958559       -1.58581081
 C            2.78534759       -0.09447658       -1.30237556
 C            2.16962921       -1.19645537       -2.02265888
 C            2.43529355        2.32727481       -1.37617874
 C            2.51765953        1.12033801       -2.05398115
 C            0.70985630        3.69892491       -0.56834807
 C            1.44096037        3.31387822       -1.76582236
 C           -1.30921456        2.49881176        0.13184238
 C           -0.67853750        3.36027370       -0.76809680
 C           -2.92193002        0.67117929        0.44909661
 C           -2.43395053        1.80477636       -0.30702509
 C           -3.16646999       -1.69793845       -0.15302656
 C           -2.31955368       -2.55559355       -0.96935820
 C           -3.32204889       -0.36171209       -0.49911611
 C           -0.41303722       -2.28755766       -2.50777766
 C           -1.81484542       -2.07984351       -2.17574146
 C            1.32735489       -0.63662053       -3.06925449
 C            1.56110338        0.79754445       -3.10784662
 C            0.04373378       -1.13532118       -3.26935707
 C            0.46431574        2.97610101       -2.78277418
 C           -0.85566240        3.14442377       -2.19469551
 C            0.50811635        1.66210535       -3.39674951
 C           -2.57955422        1.48919648       -1.72275770
 C           -2.93683734        0.08505525       -1.82628462
 C           -2.19390508       -0.75628357       -2.64811862
 C           -1.07860685       -0.21924380       -3.41343193
 C           -1.68466811        2.03708563       -2.63142757
 C           -0.85408936        1.15370342       -3.43898743
