58
Modified xyz file
 C            1.56614416       -0.02532552        4.04681936
 C            0.75806583       -1.22947929        4.02364971
 C            1.42557900       -2.19826112        3.16969640
 C            2.59932427       -0.16604146        3.03479716
 C            2.54426042       -1.52169274        2.52388202
 C            2.46399763        0.93933043        2.10023706
 C            0.71552074        1.08157029        3.65170600
 C            1.37678834        1.78222523        2.56965148
 C           -0.61273373       -0.84796884        3.71708643
 C           -0.61808925        0.57061130        3.40081579
 C           -1.38854269       -1.71114235        2.95929523
 C            0.64353711       -3.09052728        2.44421782
 C           -0.80483403       -2.96635723        2.51320156
 C            0.99489273       -3.41215768        1.06881637
 C            2.78754386       -1.72725786        1.17262412
 C            2.06645410       -2.76708727        0.45825900
 C            2.57635162        0.70034321        0.72796541
 C            2.91233688       -0.57941549        0.28110548
 C            1.97501665        1.59917049       -0.16124556
 C            0.58571407        2.38889324        1.60806725
 C            1.16151153        2.60796557        0.36522446
 C           -1.27939577        1.03263689        2.26466586
 C           -0.79734625        2.19323270        1.65887013
 C           -2.18187010       -1.17738143        1.86340582
 C           -2.07498473        0.16329598        1.50785058
 C           -1.34575890       -3.26772191        1.20102691
 C           -0.24182798       -3.62635915        0.32955508
 C           -2.21638951       -2.17116580        0.80740740
 C           -0.31915817       -3.25547165       -1.00572750
 C            1.96880626       -2.35751335       -0.93349743
 C            2.49692873       -1.00616870       -1.04475560
 C            0.85075735       -2.70703742       -1.67617191
 C            1.85802634        1.25504319       -1.51275695
 C            1.87083246       -0.09121776       -1.88448707
 C            1.41422525        2.20937266       -2.42167052
 C            0.50725188        3.48421329       -0.48967834
 C            0.74788917        3.39169382       -1.91541385
 C           -1.57388513        2.77648361        0.66402215
 C           -0.91845978        3.65674919       -0.28940737
 C           -2.47141224        0.54944563        0.22402854
 C           -2.46605998        1.90905764       -0.08390680
 C           -2.19321109       -1.73794079       -0.51422481
 C           -1.46427273       -2.47557539       -1.44760945
 C           -2.51356198       -0.40770584       -0.80097987
 C            0.37245117       -1.79286396       -2.69998641
 C            0.99100893       -0.55512904       -2.87098104
 C           -1.08202852       -1.85431922       -2.69982887
 C            0.68285898        1.76929837       -3.59207528
 C            0.37164691        0.35895623       -3.71994749
 C           -0.53531995        3.50753943       -2.59169386
 C           -1.57197818        3.49398080       -1.57440634
 C           -2.46682320        2.34999373       -1.46922282
 C           -0.57049379        2.50961056       -3.64137369
 C           -2.56575242       -0.00707282       -2.13829771
 C           -1.78272165       -0.73721276       -3.12471174
 C           -1.06406970        0.24387601       -3.91662136
 C           -2.51157581        1.40354091       -2.48415588
 C           -1.65316513        1.54244069       -3.65311509
