58
Modified xyz file
 C            1.52385861       -0.21848030        4.37048689
 C            0.68494563       -1.40259051        4.38668355
 C            1.25252640       -2.34696953        3.44816509
 C            2.52178553       -0.38665695        3.32469185
 C            2.32727073       -1.68363016        2.72453581
 C            2.45883952        0.77212663        2.46808863
 C            0.68841528        0.90189315        3.98627239
 C            1.40679211        1.64731701        2.97111357
 C           -0.62502162       -1.03455643        3.87313843
 C           -0.61976771        0.39254475        3.62832615
 C            0.15453490       -2.88472806        2.66796638
 C           -0.93399294       -1.92172775        2.76493760
 C            0.46685563       -3.37063839        1.41350481
 C            2.34149511       -1.81204588        1.33687703
 C            1.73905491       -2.96217247        0.83920748
 C            2.57353473        0.61296087        1.08893408
 C            2.41172312       -0.66334168        0.51532598
 C            2.28949508        1.73966045        0.32663387
 C            0.66326735        2.35148429        2.02964634
 C            1.32433854        2.68950147        0.85451828
 C           -1.17457085        0.86957393        2.45036207
 C           -0.70922021        2.08797137        1.96015865
 C           -1.46781121       -1.37633576        1.59291770
 C           -1.79079095       -0.01715005        1.55804003
 C           -0.49870771       -3.19179732        0.35178832
 C           -1.34379659       -2.08140415        0.39134893
 C            1.63055620       -3.14390434       -0.58524179
 C            0.23671505       -3.46670167       -0.85987907
 C            2.21370766       -0.78331922       -0.87871990
 C            1.98049734       -2.03730477       -1.44408813
 C            2.05431084        1.61373167       -1.09340001
 C            2.01278014        0.35558990       -1.67240797
 C            0.56641763        3.23346524       -0.25663755
 C            1.05739082        2.60486117       -1.47535177
 C           -1.46878380        2.70245791        0.97490541
 C           -0.79522050        3.42462851       -0.09163452
 C           -2.39313155        0.51427784        0.41768142
 C           -2.49965897        1.90488070        0.34301379
 C           -1.75676485       -1.47962642       -0.80734393
 C           -2.43495248       -0.25307043       -0.75451674
 C           -0.13182245       -2.74603752       -2.04973605
 C            1.08043310       -2.14070189       -2.57405736
 C           -1.28685701       -1.97633262       -2.03948352
 C            1.43397606        0.24095410       -2.93965007
 C            0.93377646       -1.04426437       -3.40462907
 C            0.17929825        2.31676611       -2.52050945
 C            0.50256541        1.27081458       -3.38681396
 C           -1.65414692        3.36979677       -1.25961727
 C           -2.80784163        2.55029858       -0.91474376
 C           -1.11719510        2.84548178       -2.50188320
 C           -2.98520338        0.28359427       -1.92044508
 C           -3.11229533        1.72122377       -2.05759698
 C           -2.21324182        2.12267990       -3.12686765
 C           -1.53719090       -1.26519726       -3.20679101
 C           -0.38627879       -0.80927024       -3.96863172
 C           -0.53558224        0.61750237       -4.16709620
 C           -2.50899045       -0.19611130       -3.19837792
 C           -1.92232017        0.93802834       -3.90311889
