58
Modified xyz file
 C            1.30154005       -0.00000000        4.54685060
 C            0.56851303       -1.16815941        4.10285280
 C            1.52353185       -2.03692859        3.45461695
 C            2.58913513       -0.00000000        3.86090941
 C            2.69453868       -1.23949409        3.12464890
 C            2.69453868        1.23949409        3.12464890
 C            0.56851303        1.16815941        4.10285280
 C            1.52353185        2.03692859        3.45461695
 C           -0.58849016       -0.72612845        3.33190657
 C           -0.58849016        0.72612845        3.33190657
 C           -0.91450607       -1.40281787        2.15540504
 C            1.10350394       -2.67446173        2.23344802
 C           -0.23080786       -2.59025248        1.85800617
 C            2.79195841       -1.20034161        1.66924604
 C            2.08211272       -2.36382280        1.20635823
 C            2.79195841        1.20034161        1.66924604
 C            2.61563238        0.00000000        0.98738540
 C            1.10350394        2.67446173        2.23344802
 C            2.08211272        2.36382280        1.20635823
 C           -0.91450607        1.40281787        2.15540504
 C           -0.23080786        2.59025248        1.85800617
 C           -1.55474579       -0.70058895        1.11928900
 C           -1.55474579        0.70058895        1.11928900
 C           -1.98422629       -1.40003550       -0.01419992
 C           -0.52258843       -3.21971304        0.66298167
 C           -1.64452440       -2.74990372       -0.11118913
 C            1.61587355       -2.40697601       -0.09679362
 C            0.57619203       -3.30433733       -0.28252362
 C            1.95998555       -0.00000000       -0.25549320
 C            1.59583486       -1.21996594       -0.85583754
 C            1.61587355        2.40697601       -0.09679362
 C            1.59583486        1.21996594       -0.85583754
 C           -0.52258843        3.21971304        0.66298167
 C            0.57619203        3.30433733       -0.28252362
 C           -1.98422629        1.40003550       -0.01419992
 C           -1.64452440        2.74990372       -0.11118913
 C           -2.40801796       -0.70173481       -1.15699832
 C           -2.40801796        0.70173481       -1.15699832
 C           -2.62224672       -1.39852284       -2.35765183
 C           -1.43999593       -3.34883353       -1.41310570
 C            0.00236562       -3.42549875       -1.59093277
 C           -1.95687554       -2.66277105       -2.56584170
 C            0.92019770       -1.21641077       -2.09077445
 C            0.34392763       -2.41034189       -2.55377295
 C           -0.81352386       -2.36633291       -3.41861732
 C            0.92019770        1.21641077       -2.09077445
 C            0.58755835        0.00000000       -2.70931746
 C            0.00236562        3.42549875       -1.59093277
 C           -1.43999593        3.34883353       -1.41310570
 C            0.34392763        2.41034189       -2.55377295
 C           -2.62224672        1.39852284       -2.35765183
 C           -1.95687554        2.66277105       -2.56584170
 C           -0.81352386        2.36633291       -3.41861732
 C           -2.42964468       -0.71878371       -3.61862983
 C           -1.11270574       -1.12949249       -4.08596426
 C           -0.24515265        0.00000000       -3.84218762
 C           -2.42964468        0.71878371       -3.61862983
 C           -1.11270574        1.12949249       -4.08596426
