58
Modified xyz file
 C            1.57253965        0.06809006        3.96176936
 C            0.72894188       -1.11160788        3.87851787
 C            1.24950581       -1.95491762        2.81808545
 C            2.50967742        0.01949459        2.85390315
 C            2.39809807       -1.27768997        2.23030823
 C            2.28924251        1.17986275        2.02542242
 C            0.72393370        1.22950237        3.77010528
 C            1.17532403        1.93115251        2.57850834
 C           -0.64984698       -0.67209544        3.80562693
 C           -0.65556296        0.78610037        3.82744170
 C           -1.51985071       -1.35358955        2.96267490
 C            0.36836625       -2.62682256        1.96947836
 C           -1.00517967       -2.38196313        2.06387195
 C            0.88221136       -3.12563446        0.77427265
 C            2.57847963       -1.38308847        0.85583438
 C            2.12459289       -2.55954038        0.27810059
 C            2.34781602        1.03370912        0.65096066
 C            2.62959465       -0.21383370        0.07323545
 C            1.72784577        2.00116747       -0.11982888
 C            0.21960094        2.46093216        1.70704840
 C            0.52656655        2.56399887        0.33806586
 C           -1.58696329        1.47741075        3.06593721
 C           -1.11265796        2.48332430        2.12696053
 C           -2.56598867       -0.62599201        2.26072063
 C           -2.65941534        0.75139467        2.40458346
 C           -1.82219639       -2.36395991        0.85746128
 C           -2.73026194       -1.23019914        0.94470491
 C            0.00601263       -3.29320768       -0.37390049
 C           -1.24765913       -2.69003110       -0.36572446
 C            2.13529449       -2.69615942       -1.15870391
 C            0.83888135       -3.22083434       -1.56254015
 C            2.67520195       -0.30534510       -1.32980159
 C            2.40278394       -1.52265500       -1.95883600
 C            2.07833927        2.07238996       -1.45625336
 C            2.57829096        0.86393009       -2.08934365
 C            1.17617697        2.72512016       -2.37357452
 C           -0.46566934        2.95634369       -0.58050048
 C           -0.18701206        2.92412100       -1.94216492
 C           -2.16502918        2.67401709        1.15482964
 C           -3.08276636        1.54995804        1.27012852
 C           -1.80018548        2.80110782       -0.23582560
 C           -2.95024666       -0.43586430       -0.18133117
 C           -3.18135316        0.92875056       -0.03989852
 C           -2.59319317        1.85160675       -0.99724580
 C           -1.75369054       -2.10870254       -1.52903537
 C           -2.59502023       -0.92524835       -1.43309608
 C            0.38568753       -2.44450431       -2.70089185
 C            1.47587534       -1.56013932       -3.08041622
 C           -0.91804606       -1.96836011       -2.71476119
 C            1.98788727        0.78981904       -3.41670924
 C            1.15042063        1.95952641       -3.60692894
 C            1.20101175       -0.37994848       -3.75637375
 C           -1.04455729        2.10753231       -2.79137877
 C           -2.06237280        1.36544041       -2.19024948
 C           -2.18919442        0.00332147       -2.48014447
 C           -1.20587050       -0.67609050       -3.31785930
 C           -0.21143263        1.49696373       -3.81108485
 C           -0.18297828        0.05193626       -3.91415509
