58
Modified xyz file
 C            1.26362366       -0.08742725        3.68872392
 C            2.48364769       -0.39353152        2.98197526
 C            2.38568428       -1.76081507        2.48998978
 C            0.41581097       -1.26916768        3.65881328
 C            1.07480207       -2.27340727        2.84658704
 C           -0.92742657       -0.84322217        3.30259783
 C            0.46762804        1.03401311        3.23756730
 C           -0.92125265        0.60784216        3.19567902
 C            0.93510021        1.87694968        2.23355023
 C            2.86638322        0.44252413        1.85978156
 C            2.05306349        1.50733064        1.45997038
 C            2.78520662       -1.74711030        1.09199389
 C            3.39410103       -0.45247620        0.84791774
 C            1.93663174       -2.29255046        0.12881359
 C            0.33423635       -2.94998257        1.88795037
 C            0.86202221       -3.08405952        0.53781622
 C           -1.66839824       -1.58002869        2.38557694
 C           -1.09589077       -2.69931418        1.77157566
 C           -2.77865619       -0.96992379        1.81164218
 C           -1.79241836        1.23300784        2.30210345
 C           -2.81424511        0.48266458        1.71730173
 C            0.02061420        2.79389038        1.73148841
 C           -1.38685219        2.42246246        1.69302553
 C            0.32643593        3.52292672        0.52182781
 C            2.24444867        2.04166461        0.17575507
 C            1.42489030        3.06432730       -0.29558806
 C            3.47027425        0.00441805       -0.45401089
 C            3.06074259        1.36857036       -0.73345281
 C            2.00534273       -1.82579742       -1.18893392
 C            2.91609878       -0.82031561       -1.51260050
 C            1.01212716       -2.16797844       -2.10864130
 C           -0.26868268       -3.29315019       -0.35057874
 C           -1.48606386       -3.07864371        0.41913092
 C           -0.19015593       -2.84970154       -1.66210678
 C           -3.35281595       -1.51369618        0.59390549
 C           -2.58645714       -2.47397827       -0.17479544
 C           -3.28747329        0.82670426        0.38422054
 C           -3.68940179       -0.40130305       -0.27878249
 C           -1.89097475        2.76109639        0.37114913
 C           -0.87026117        3.54178542       -0.30532911
 C           -2.62364951        1.81409568       -0.33612841
 C            0.96097624        3.03391942       -1.67592341
 C           -0.48586985        3.18153834       -1.65633842
 C            2.74252985        1.43045000       -2.15018329
 C            2.63811777        0.06236375       -2.63385540
 C            1.55398705        2.15054117       -2.57018148
 C            0.62316119       -1.22197232       -3.14578961
 C            1.37694916       -0.07100770       -3.33817356
 C            0.72413237        1.23052883       -3.33528570
 C           -1.33359066       -2.19227450       -2.27816006
 C           -2.49381491       -1.97958461       -1.54061728
 C           -3.16501815       -0.68888548       -1.59918357
 C           -0.82900529       -1.14698784       -3.15579265
 C           -2.41449662        1.65148117       -1.70980356
 C           -1.28008506        2.28982603       -2.36554795
 C           -0.66244646        1.31020432       -3.24744616
 C           -2.60504841        0.34828192       -2.33379014
 C           -1.45831827        0.09288479       -3.19140960
