58
Modified xyz file
 C            1.25462957        0.10516960        4.05148644
 C            2.43675119       -0.01180994        3.22405439
 C            2.51446320       -1.39118193        2.78567482
 C            0.43654275       -1.07780906        3.81958199
 C            1.21624745       -2.00328721        3.02114163
 C           -0.83722294       -0.63070346        3.29637830
 C            0.40461175        1.25976081        3.86519396
 C           -0.94316232        0.77506835        3.60715511
 C            0.71284345        2.19604108        2.79869406
 C            2.56079810        0.82934269        2.04264646
 C            1.63656954        1.84880627        1.80761446
 C            3.03153539       -1.39479662        1.42748374
 C            2.95407273       -0.02565757        0.93604603
 C            2.62048347       -2.42018671        0.59043954
 C            0.61160419       -2.65949951        1.95260886
 C            1.47109701       -3.20602094        1.00295989
 C           -1.22355885       -1.07907437        2.03839695
 C           -0.68026220       -2.27121578        1.55854436
 C           -1.93771335       -0.23729802        1.16803288
 C           -1.52308041        1.65270621        2.61527094
 C           -0.57042008        2.73115023        2.39471701
 C           -2.16986894        1.10542101        1.50927608
 C           -0.64508423        3.41854106        1.19664070
 C            1.40995337        2.27243730        0.49279305
 C            0.46107972        3.27163768        0.26374798
 C            2.41433610        0.23043117       -0.32125354
 C            1.87018974        1.48872061       -0.57415986
 C            2.41691968       -2.13171615       -0.81518413
 C            2.16079544       -0.82310045       -1.20839448
 C            0.92494607       -3.82150405       -0.18700787
 C            1.56768113       -3.18478424       -1.32968789
 C           -1.28503806       -2.87698816        0.46241657
 C           -0.50514651       -3.75724323       -0.38929250
 C           -2.33264717       -0.72116454       -0.08909079
 C           -2.13807939       -2.07045427       -0.39564893
 C           -2.67710488        0.17115432       -1.11167339
 C           -2.57065478        1.99884797        0.52142989
 C           -1.86044007        3.26332755        0.42171378
 C           -2.81177774        1.52517566       -0.82698825
 C           -0.06914476        3.48015319       -1.07382426
 C           -1.51934095        3.47591002       -0.97021678
 C           -2.27238578        2.51584005       -1.75455173
 C            1.52896769        1.81180697       -1.88427526
 C            0.52162085        2.82721060       -2.14535557
 C            1.41925916       -0.58457343       -2.37078184
 C            1.33489421        0.72902380       -2.83386435
 C            0.53128699       -2.83061210       -2.27680076
 C           -0.72659735       -3.34640944       -1.76063095
 C           -1.87939059       -2.46387873       -1.77491169
 C            0.52423686       -1.56065397       -2.84821067
 C           -2.54309103       -0.21787191       -2.44325030
 C           -1.91682606       -1.48517016       -2.75379819
 C           -0.67458125       -1.16126055       -3.43615294
 C           -1.73542558        2.08757074       -2.96083091
 C           -0.32567875        2.34161572       -3.22499135
 C            0.26354990        1.11546939       -3.73396928
 C           -2.02896305        0.73999927       -3.40806421
 C           -0.80927965        0.17758714       -3.96927725
