58
Modified xyz file
 C            1.51069736       -0.19782036        4.49820330
 C            0.64587803       -1.36611859        4.52383082
 C            1.13306959       -2.29635534        3.52351748
 C            2.50554673       -0.40425158        3.46062955
 C            2.37420095       -1.76794509        2.98201811
 C            2.39310786        0.68152275        2.49706673
 C            0.70151897        0.94061230        4.10568405
 C            1.30057941        1.53871607        2.92042982
 C           -0.68256516       -0.94451421        4.11570184
 C           -0.68228382        0.50461400        4.03237647
 C            0.04318679       -2.58283970        2.60099181
 C           -1.06445402       -1.70755596        2.93354138
 C            0.34913159       -2.77920049        1.26320577
 C            2.64109369       -2.01046112        1.64454723
 C            1.69246809       -2.80880635        0.89379921
 C            2.53421705        0.39035063        1.14290753
 C            2.95715432       -0.88481138        0.77871333
 C            1.85516191        1.16589223        0.20094849
 C            0.45759738        2.07363030        1.95261779
 C            0.85893942        2.06108234        0.61675662
 C           -1.48394398        1.08997369        3.06829094
 C           -0.90324221        2.11734485        2.22238130
 C           -1.74699570       -1.05332415        1.90716488
 C           -2.22447094        0.22535311        2.16388361
 C           -0.60190676       -2.44766363        0.29673994
 C           -1.55108323       -1.45328635        0.57547357
 C           -0.33259854       -2.79478555       -1.02181391
 C            2.03272050       -2.61998715       -0.49988220
 C            2.73231711       -1.34090527       -0.58295692
 C            1.05875395       -2.89210354       -1.44440472
 C            2.00105681        0.87497869       -1.15982576
 C            2.33988316       -0.42452122       -1.55612893
 C            1.49255779        1.77397989       -2.09463901
 C            0.03929492        2.66713927       -0.34251298
 C            0.52629286        2.76072636       -1.64759199
 C           -1.81555709        2.27043865        1.11234090
 C           -2.61800035        1.05755537        1.05388885
 C           -1.34142770        2.76392949       -0.09503562
 C           -2.15634768       -0.72933539       -0.47597059
 C           -2.80680866        0.48797495       -0.19507819
 C           -1.08133037       -2.17339207       -2.09402393
 C           -1.96505713       -1.13714653       -1.81181530
 C            1.16820595       -2.22186665       -2.72192056
 C            1.83318671       -0.93376438       -2.75230237
 C           -0.17575200       -2.02335053       -3.22016926
 C            1.06427683        1.29085011       -3.39866682
 C            1.06712946       -0.07758341       -3.63790811
 C           -0.18765170       -0.76731825       -3.94273815
 C           -0.38069558        3.02632279       -2.75148569
 C           -0.08137933        2.08073739       -3.81511201
 C           -2.22892339        2.63475555       -1.15842228
 C           -3.00257387        1.40533439       -1.22104615
 C           -1.80073711        2.96955208       -2.49646031
 C           -2.32782000       -0.29578739       -2.86917123
 C           -1.37126046       -0.04553246       -3.94208677
 C           -1.30951132        1.38772340       -4.15561630
 C           -2.99673080        0.94922448       -2.58507030
 C           -2.38811628        1.99201900       -3.39779497
