58
Modified xyz file
 C            1.48406834       -0.05599593        4.02715063
 C            0.66654995       -1.24826100        3.93912063
 C            1.28531689       -2.13923388        2.97161932
 C            2.50211450       -0.14744051        2.99382130
 C            2.26345991       -1.35490433        2.23476516
 C            2.49768667        1.10628775        2.27733988
 C            0.63644968        1.07842024        3.70207548
 C            1.33995506        1.86789941        2.72485985
 C           -0.70674734       -0.82898484        3.71303782
 C           -0.67033403        0.57781787        3.34232885
 C           -1.53574563       -1.68419357        3.00392023
 C            0.46233007       -3.00455038        2.26906827
 C           -0.97264246       -2.92647950        2.49763647
 C            0.65512154       -3.14846182        0.83615620
 C            2.16205957       -1.25547306        0.84771026
 C            1.42536378       -2.21430695        0.13999849
 C            2.76141301        1.10525365        0.91051705
 C            2.62015909       -0.09834059        0.19923032
 C            2.50274341        2.30724144        0.25455471
 C            0.61479330        2.53068531        1.74590020
 C            1.39313963        3.10123210        0.75126870
 C           -1.23752225        0.98353739        2.13306535
 C           -0.66272779        2.04389557        1.40046013
 C           -2.38218095       -1.13699970        1.95722820
 C           -2.23985207        0.19150211        1.56318668
 C           -1.63767298       -3.24334044        1.24678449
 C           -0.61537557       -3.57793682        0.27585262
 C           -2.55224955       -2.15970278        0.93452322
 C           -0.87276089       -3.29392599       -1.05365316
 C            1.26103943       -2.09576872       -1.24310578
 C            0.20078611       -2.75509669       -1.86569958
 C            2.66544223       -0.08287118       -1.19302555
 C            1.95043348       -1.10447317       -1.93647952
 C            2.46663042        2.35988239       -1.19404440
 C            2.52084737        1.17368721       -1.91171434
 C            0.74777275        3.72861229       -0.37190642
 C            1.51056330        3.39110747       -1.56351706
 C           -1.27411177        2.47449949        0.20768724
 C           -0.63352923        3.39585914       -0.62337155
 C           -2.81816761        0.57126955        0.36239377
 C           -2.36457262        1.77418727       -0.30113184
 C           -2.69181196       -1.76502823       -0.39460315
 C           -2.06255253       -2.52231149       -1.38698643
 C           -3.05948396       -0.44343890       -0.65373649
 C           -0.42870535       -2.15569699       -3.02889521
 C           -1.83427708       -1.95337857       -2.70492012
 C            1.34143667       -0.47319187       -3.10190787
 C            1.62237796        0.95066885       -3.03828550
 C            0.09745792       -0.90682730       -3.54410020
 C            0.56043365        3.13289338       -2.62752453
 C           -0.77490237        3.27010916       -2.06478073
 C            0.61161564        1.86421788       -3.32932199
 C           -2.48309226        1.55993927       -1.73819262
 C           -2.81274203        0.16067278       -1.95568263
 C           -2.14616190       -0.55810129       -2.93958431
 C           -1.00745374        0.03808442       -3.62158738
 C           -1.59424243        2.19634962       -2.59436409
 C           -0.75794298        1.39890346       -3.48113903
