58
Modified xyz file
 C            1.70646950       -0.05030584        4.32827611
 C            0.90281135       -1.24502236        4.50635470
 C            1.29787280       -2.19118300        3.48263352
 C            2.51063999       -0.22329586        3.12730681
 C            2.25907707       -1.54460626        2.60124348
 C            2.26466855        0.90743950        2.26291449
 C            0.79933641        1.05536538        4.08602321
 C            1.26994493        1.75042159        2.90214116
 C           -0.48609499       -0.89531905        4.25202163
 C           -0.56011379        0.54316261        4.08669052
 C            0.08300389       -2.71054195        2.88532520
 C           -0.97048386       -1.74810192        3.17662927
 C            0.17725921       -3.18686439        1.59296785
 C            2.08744535       -1.70897257        1.22787580
 C            1.35461484       -2.81738469        0.82379769
 C            2.15301815        0.70399448        0.89119284
 C            2.15579758       -0.59769679        0.36681196
 C            1.58818882        1.72781614        0.13631737
 C            0.33960905        2.36909518        2.07891681
 C            0.71326659        2.62792744        0.76490376
 C           -1.44306737        1.05382528        3.14699442
 C           -1.02061010        2.18348197        2.34010299
 C           -1.69312268       -1.17599338        2.12207696
 C           -2.12937980        0.14191475        2.23807559
 C           -0.93569910       -2.95515104        0.70144961
 C           -1.68739454       -1.79441313        0.86534375
 C            0.99331521       -2.94847930       -0.56719547
 C           -0.42601967       -3.27387034       -0.61203336
 C            1.90110697       -0.77083885       -1.00622513
 C            1.48039020       -2.02637693       -1.48160258
 C            1.60511650        1.62357984       -1.25361902
 C            1.79580498        0.36116399       -1.83262567
 C            1.10424905        2.68574290       -2.00958638
 C           -0.19281815        3.33867846       -0.00894451
 C            0.08119610        3.51555484       -1.41754091
 C           -1.95984449        2.25110546        1.23201361
 C           -2.45447532        0.89634068        1.03682129
 C           -1.59269859        2.97886761        0.11426767
 C           -2.10489552       -1.08955845       -0.27590939
 C           -2.31122026        0.29054758       -0.21032587
 C           -1.14387935       -2.84248252       -1.71108642
 C           -2.04048828       -1.70843093       -1.52523455
 C            0.98233814       -2.14186846       -2.77574801
 C           -0.39077053       -2.59287350       -2.92412427
 C            1.67384308        0.19636087       -3.21474915
 C            1.18839210       -1.06789901       -3.71925904
 C            0.67255393        2.46548112       -3.37256601
 C            1.00347433        1.20966910       -4.00411163
 C           -1.15297720        3.20958181       -2.12313242
 C           -1.97257563        2.47056226       -1.18687905
 C           -2.12674302        1.09136177       -1.34888019
 C           -0.78121768        2.57009148       -3.36232199
 C           -1.96590111       -0.88604352       -2.72299847
 C           -1.09712739       -1.57426090       -3.66736716
 C           -0.08968848       -0.81230516       -4.37611072
 C           -0.25169025        0.62184155       -4.44124581
 C           -1.88073715        0.49973823       -2.59756327
 C           -1.28307038        1.23942626       -3.62850362
