58
Modified xyz file
 C            1.45700239        0.02627711        4.27887089
 C            0.61294381       -1.12288265        4.00037257
 C            1.37102956       -2.02560911        3.16681416
 C            2.60188239       -0.04442349        3.38599382
 C            2.59407341       -1.34462596        2.76173739
 C            2.57002886        1.12211771        2.53072405
 C            0.70127813        1.21989257        3.93928152
 C            1.43902806        1.94811884        2.92498173
 C           -0.65926240       -0.63084343        3.50520658
 C           -0.65520913        0.81798407        3.63917552
 C           -1.23692553       -1.19909096        2.36738178
 C            0.74702991       -2.53636259        1.96419956
 C           -0.58076492       -2.23367931        1.67388048
 C            2.67201841       -1.41761363        1.31352998
 C            1.71050262       -2.41598738        0.89228933
 C            2.84997214        1.00587966        1.17200411
 C            2.79579061       -0.25696690        0.54800653
 C            2.59811591        2.14218219        0.41400951
 C            0.73922311        2.62674390        1.92559995
 C            1.42886695        2.93801439        0.75435572
 C           -1.36275679        1.56562542        2.71104640
 C           -0.65733110        2.54900806        1.89303376
 C           -2.27411773       -0.50086481        1.73999724
 C           -2.31243743        0.88674587        1.84763822
 C           -2.93404632       -1.09024580        0.66915153
 C           -1.04363440       -2.58756985        0.40607273
 C           -2.36628271       -2.29084610        0.10018282
 C            1.21614878       -2.34706265       -0.39988131
 C           -0.10237807       -2.74306329       -0.62384685
 C            2.50559781       -0.35121444       -0.82074943
 C            1.81778001       -1.47158842       -1.30395403
 C            2.68891965        2.07076413       -1.02629119
 C            2.65701681        0.76519774       -1.64009342
 C            0.69797409        3.18327409       -0.47879496
 C            1.58446464        2.83958683       -1.57749676
 C           -1.36425073        2.64581971        0.62110618
 C           -2.45487540        1.68140510        0.63984914
 C           -0.65192996        2.85268124       -0.55432896
 C           -3.34204143       -0.25069174       -0.44775058
 C           -2.83566013        1.04478259       -0.53738071
 C           -2.84233276       -2.39116815       -1.26606759
 C           -3.39806222       -1.09552076       -1.62868131
 C           -0.51179076       -2.94424427       -1.94018361
 C           -1.90688472       -2.77813970       -2.29798411
 C            1.40652954       -1.50470942       -2.63620806
 C            0.27846264       -2.34796076       -3.00197657
 C            1.85004134        0.88588117       -2.84176900
 C            1.05225401        2.09667416       -2.70360450
 C            1.26917299       -0.25793472       -3.36819430
 C           -1.19682994        2.41925669       -1.76303483
 C           -2.34020786        1.51779120       -1.75340747
 C           -0.32532149        2.02829623       -2.86470250
 C           -2.74308993       -0.65654235       -2.84528846
 C           -1.97242546       -1.77909911       -3.35275009
 C           -0.61985054       -1.55575618       -3.82949131
 C           -0.09518099       -0.20277507       -3.86834582
 C           -2.21476672        0.62850010       -2.90160598
 C           -0.91250103        0.86658228       -3.51262953
