58
Modified xyz file
 C            1.53970441        0.00987712        3.94968753
 C            0.72035227       -1.18323487        4.04434660
 C            1.27088446       -2.18121553        3.13990449
 C            2.50895703       -0.20718463        2.89223810
 C            2.26763961       -1.51535423        2.31688617
 C            2.45266387        0.93728440        2.00527448
 C            0.67990955        1.10319746        3.53113011
 C            1.29131415        1.72964083        2.37203146
 C           -0.66797428       -0.78530851        3.87850423
 C           -0.66822056        0.58672880        3.39466030
 C           -1.54425712       -1.69840228        3.31101196
 C            0.39577320       -3.07773212        2.54486442
 C           -1.01407054       -2.98534363        2.88703411
 C            0.47738205       -3.29505392        1.10865402
 C            2.20201572       -1.60945393        0.92899804
 C            1.26831166       -2.45960138        0.32631865
 C            2.67430972        0.73402455        0.65172728
 C            2.75426126       -0.57833523        0.16765744
 C            2.23960850        1.72904948       -0.21655588
 C            0.46682775        2.18603854        1.34436294
 C            1.03469503        2.38168546        0.07922096
 C           -1.37720380        0.91421452        2.24326857
 C           -0.90987064        1.95969141        1.44025646
 C           -2.46233594       -1.24770346        2.27743390
 C           -2.31412807        0.01835318        1.71661374
 C           -1.78078502       -3.43133992        1.73940326
 C           -0.85637235       -3.60751736        0.63295756
 C           -2.68988324       -2.36037069        1.37700614
 C           -1.37070378       -2.85623414       -0.49876069
 C           -2.53581069       -2.11730702       -0.04316452
 C            0.89120531       -2.22455792       -0.99988024
 C           -0.46745106       -2.19475017       -1.32988037
 C            2.82987205       -0.76839302       -1.20845912
 C            1.79284591       -1.57358081       -1.83116036
 C            2.71570600        1.68845963       -1.51915953
 C            3.05441610        0.38875099       -2.05825316
 C            2.02842297        2.42697993       -2.55595009
 C            0.24378318        2.91527462       -0.94599061
 C            0.76174701        3.05059111       -2.23617658
 C           -1.73312930        2.42111019        0.42188290
 C           -1.12834248        3.05426568       -0.73702139
 C           -2.77904208        0.22655438        0.41724974
 C           -2.68033335       -0.81955312       -0.50951479
 C           -2.77603437        1.53256448       -0.06218532
 C           -0.94786985       -1.14933538       -2.12841343
 C           -2.15559138       -0.53694754       -1.76560288
 C            1.28536615       -0.82586222       -2.96830191
 C            2.26585258        0.20556119       -3.26161069
 C            1.80237302        1.51524218       -3.67190401
 C           -0.07535887       -0.52497957       -3.02854649
 C           -0.10064296        2.82681236       -3.38500986
 C            0.41647052        1.65531360       -4.06765290
 C           -0.50669707        0.56903264       -3.78239503
 C           -2.04945263        2.86545875       -1.84477908
 C           -2.90391000        1.74739254       -1.49364276
 C           -2.55099780        0.64900687       -2.36748837
 C           -1.51272789        2.59525700       -3.16285684
 C           -1.77347391        1.19123870       -3.46026864
