58
Modified xyz file
 C            1.27808505        0.08690094        4.01704188
 C            2.49403517       -0.07418833        3.24978774
 C            2.49366244       -1.42056422        2.70660243
 C            0.42401343       -1.06137396        3.74417726
 C            1.16077824       -1.97173077        2.88777091
 C           -0.85550238       -0.56190452        3.27974393
 C            0.48657142        1.28011335        3.80926798
 C           -0.87961472        0.85699589        3.54836695
 C            0.85950369        2.21168348        2.75512881
 C            2.76801541        0.83919404        2.15316135
 C            1.97062371        1.96792790        1.94437962
 C            3.03834974       -1.36105152        1.35948818
 C            3.17737892        0.04275886        1.00456935
 C            2.53645867       -2.24001462        0.41494090
 C            0.52395478       -2.52752222        1.78188579
 C            1.32513888       -2.97689761        0.73481158
 C           -1.34478518       -1.02031220        2.06113606
 C           -0.80751488       -2.18736885        1.51700128
 C           -2.15156432       -0.18979561        1.26689244
 C           -1.41797190        1.72815575        2.52972575
 C           -0.37850283        2.67183274        2.14591139
 C           -2.21016740        1.19237085        1.52502773
 C           -0.36323184        3.14922893        0.83554287
 C            2.03002003        2.58640315        0.69911294
 C            0.86732450        3.30444016        0.19754401
 C            2.83453914        0.48874465       -0.27182475
 C            2.59989090        1.85106625       -0.41914346
 C            2.39249782       -1.78707718       -0.95403063
 C            2.33649232       -0.41934459       -1.22265753
 C            0.70962017       -3.36345350       -0.52077618
 C            1.44035017       -2.68228318       -1.58598892
 C           -1.46005989       -2.78455965        0.44574175
 C           -0.67463891       -3.45403799       -0.57899098
 C           -2.75660876       -0.72348927        0.11735456
 C           -2.52726849       -2.05684669       -0.21686346
 C           -3.26783238        0.12377524       -0.86621135
 C           -2.53438434        2.06168370        0.49532690
 C           -1.53231143        3.02804476        0.07617936
 C           -3.19719704        1.55556394       -0.68128579
 C           -1.47594769        2.99622838       -1.38010595
 C           -2.53362250        2.12134572       -1.84704051
 C            0.94148527        3.28101734       -1.25370797
 C            1.98918120        2.34485431       -1.63074841
 C           -0.24674942        2.95260466       -2.01518457
 C            1.65909429        0.03114152       -2.36967608
 C            1.42352058        1.38911091       -2.55340503
 C            0.07537590        1.82553842       -2.88155761
 C            0.76897026       -2.24935577       -2.71924618
 C            0.86880354       -0.85245341       -3.10482738
 C           -1.34442782       -3.26668996       -1.85224471
 C           -2.52002650       -2.44434103       -1.61974678
 C           -0.59973264       -2.68153091       -2.95037488
 C           -2.95363190       -0.13234874       -2.26257407
 C           -2.20176977        1.02135902       -2.73669412
 C           -0.88692102        0.85913913       -3.18180948
 C           -0.44631189       -0.41158207       -3.54726663
 C           -2.55120822       -1.40558660       -2.63527386
 C           -1.35422957       -1.54151902       -3.44436443
