58
Modified xyz file
 C            1.58728620        0.10037178        3.90821655
 C            0.76076216       -1.09079937        3.85704418
 C            1.31400852       -1.98837218        2.85466759
 C            2.62969452       -0.04264772        2.90910335
 C            2.52226481       -1.36938957        2.33222496
 C            2.56288460        1.10699390        2.02250099
 C            0.75601905        1.22449238        3.51676428
 C            1.40902930        1.89772254        2.41028452
 C           -0.61876748       -0.66465802        3.70743711
 C           -0.59415967        0.73603376        3.31259267
 C           -1.48393694       -1.51981787        3.04766403
 C            0.42860929       -2.64136396        1.99421711
 C           -0.91901972       -2.67151267        2.36620221
 C            0.80356022       -2.89123365        0.66210053
 C            2.83097083       -1.52359920        0.99314157
 C            2.00494780       -2.38705797        0.16951458
 C            2.80705268        0.92693609        0.66273948
 C            3.15274277       -0.34655373        0.19852578
 C            2.29192290        1.86117774       -0.24148990
 C            0.62152359        2.42305420        1.39604307
 C            1.22701033        2.67844274        0.16843284
 C           -1.26904979        1.14242125        2.16224407
 C           -0.76239128        2.21918040        1.43553493
 C           -2.45285918       -0.95509477        2.12860700
 C           -2.19547188        0.28648410        1.55594697
 C           -1.92859718       -3.12988824        1.43517942
 C           -2.88724597       -2.04256745        1.27585542
 C           -0.13087703       -3.34866265       -0.26801681
 C           -1.51173999       -3.55205506        0.11963503
 C           -0.12694713       -2.78127828       -1.61014851
 C            2.04879151       -1.87155806       -1.19223231
 C            2.90724512       -0.69754474       -1.19112009
 C            0.88610831       -1.88811261       -1.96287369
 C            2.55328839        1.67127111       -1.59854648
 C            2.66120374        0.31588142       -2.09995727
 C            1.83333915        2.43429133       -2.59878368
 C            0.53433327        3.46840561       -0.74572672
 C            0.83271485        3.38022079       -2.16109434
 C           -1.54435952        2.74055180        0.41237264
 C           -0.90662920        3.55074734       -0.61150746
 C           -2.64445898        0.55998482        0.25687648
 C           -2.49148556        1.85441504       -0.24121647
 C           -3.03946746       -1.79255696       -0.14221273
 C           -2.34309070       -2.85662468       -0.84575661
 C           -1.50640417       -2.49923048       -1.97796884
 C           -2.92224426       -0.49271604       -0.62842832
 C           -1.78628486       -1.31715994       -2.64202282
 C           -2.64208604       -0.34022774       -1.98559445
 C            0.61554934       -0.82702862       -2.83706098
 C            1.59009121        0.14467046       -3.06364245
 C            1.19032195        1.47882818       -3.48970296
 C           -0.69529464       -0.57878748       -3.24487390
 C           -0.40874869        3.07085120       -2.85323347
 C           -1.49150241        3.19666756       -1.89365334
 C           -2.37811544        2.06816689       -1.67569819
 C           -2.30382825        0.96712274       -2.51601289
 C           -0.22196348        1.81036888       -3.55200870
 C           -1.15624949        0.79234367       -3.40108499
