58
Modified xyz file
 C            1.60938171        0.00838476        4.18739184
 C            0.84168660       -1.21848179        4.09657310
 C            1.71738903       -2.20372089        3.50536236
 C            2.69821123       -0.09377354        3.22802274
 C            2.80946607       -1.48141628        2.85686679
 C            2.45563235        0.88500848        2.18597851
 C            0.74965864        1.08814612        3.74865368
 C            1.43571899        1.78919607        2.68388969
 C           -0.41745190       -0.90707997        3.43059336
 C           -0.55536406        0.53796776        3.43618021
 C           -0.80358284       -1.62327590        2.29233967
 C            1.15646002       -3.09942887        2.51992945
 C           -0.17462212       -2.82827102        1.99593619
 C            2.77766026       -1.82782368        1.45005627
 C            2.05572717       -3.07427272        1.38288337
 C            2.40011530        0.50109384        0.84044327
 C            2.50197006       -0.85448053        0.47991425
 C            1.84234925        1.41110084       -0.06393900
 C            0.64605067        2.42267019        1.74177757
 C            1.14368951        2.51395627        0.45084221
 C           -1.24992024        1.13629043        2.39698470
 C           -0.73682671        2.32730323        1.88589002
 C           -1.57407139       -0.98596677        1.30987332
 C           -1.99612451        0.32773468        1.54279104
 C           -1.74655750       -1.57337662        0.03746108
 C           -0.14884238       -3.27797271        0.62465372
 C            1.24716552       -3.29385066        0.21643413
 C           -1.05356775       -2.75483030       -0.29251763
 C            2.03750551       -1.27285885       -0.78010562
 C            1.54884366       -2.58742623       -0.93242977
 C            1.68362513        1.04127859       -1.40263774
 C            1.76138257       -0.30704881       -1.76204111
 C            1.17465956        1.96265355       -2.31834869
 C            0.49709637        3.39677916       -0.40387250
 C            0.57527878        3.18884422       -1.83120001
 C           -1.53071503        3.05212667        1.00481320
 C           -0.87257128        3.76212214       -0.08165862
 C           -2.82928153        0.95445219        0.62752585
 C           -2.70314685        2.39503662        0.45387370
 C           -2.47046167       -0.88561599       -0.95869807
 C           -3.00562368        0.36684823       -0.68308973
 C           -2.29354691       -1.20647148       -2.30477266
 C           -0.71885985       -2.97984782       -1.62598727
 C            0.68588803       -2.85100208       -1.98023585
 C           -1.49331980       -2.35143595       -2.66392977
 C            1.29690832       -0.70668015       -3.02005713
 C            0.77289068       -2.04443036       -3.16741093
 C           -0.56983942       -1.94706862       -3.71177827
 C            0.32064006        1.49351613       -3.39108011
 C           -1.98777073       -0.13802483       -3.24760258
 C            0.41984144        0.17211994       -3.77917782
 C           -0.81706554       -0.54941101       -4.00036867
 C           -0.77898334        3.26180577       -2.36702358
 C           -1.67559535        3.59831278       -1.28081253
 C           -2.75814056        2.68898113       -0.96857851
 C           -2.84417341        1.42324399       -1.67291674
 C           -1.00169616        2.04216585       -3.12437493
 C           -2.05516996        1.17620478       -2.79728941
