58
Modified xyz file
 C            1.10556418       -0.17730245        4.19664596
 C            2.41976374       -0.46923099        3.66802953
 C            2.28668714       -1.65270100        2.82225137
 C            0.28295185       -1.33920214        3.92248383
 C            0.88629686       -2.01264290        2.78977875
 C           -1.06890341       -0.85792765        3.78296620
 C            0.38223506        0.96757634        3.66681796
 C           -1.01355030        0.59932269        3.69775250
 C            0.88917731        1.63752204        2.55334392
 C            3.07324807        0.55481231        2.87892392
 C            2.27182320        1.64688931        2.35313177
 C            2.95320963       -1.37117135        1.57392805
 C            3.65926314       -0.11119137        1.73546853
 C            2.29249119       -1.59847679        0.37129517
 C            0.20802941       -2.02831229        1.56701953
 C            0.92148743       -1.91649321        0.36242625
 C           -1.83271181       -1.29110891        2.63513919
 C           -1.18828013       -1.91511956        1.56086874
 C           -1.86425892        0.98218958        2.58850720
 C           -2.69986811       -0.17428222        2.33999367
 C            0.03083153        2.04663835        1.51828520
 C           -1.31116784        1.64025560        1.48960286
 C            0.56132449        2.69501970        0.40611010
 C            2.80871463        1.95967082        1.04105509
 C            3.63228062        0.82774893        0.62748556
 C            1.98126567        2.57768073        0.11322397
 C            2.85497123       -1.01966487       -0.75745856
 C            3.45248700        0.30325036       -0.64336825
 C            2.14166793       -1.07100431       -2.00764186
 C            0.22548952       -1.96655763       -0.85739131
 C            0.90508406       -1.69832940       -2.06035744
 C           -1.87971466       -1.96488278        0.34900699
 C           -1.16968160       -2.12761881       -0.84763643
 C           -3.38111737       -0.22331166        1.14599483
 C           -3.15367613       -1.38618072        0.31992551
 C           -2.00660077        1.59021393        0.27076898
 C           -3.20994859        0.88533410        0.23001001
 C           -0.15834822        2.64313740       -0.85525129
 C           -1.36187609        1.94623073       -0.92275187
 C            2.11174171        2.24787667       -1.29722884
 C            2.84806149        1.12955980       -1.67142418
 C            2.30126448        0.22039987       -2.66109569
 C            0.82095286        2.49416979       -1.92040266
 C            1.28167715        0.65857524       -3.49233388
 C            0.46656097        1.79110135       -3.06391097
 C            0.19965141       -1.56937287       -3.25210283
 C            0.37594254       -0.34751327       -4.01902832
 C           -1.87601675       -2.21154976       -2.05158849
 C           -1.20322919       -1.90394107       -3.29437052
 C           -3.76675644       -1.05214454       -0.94541274
 C           -3.71675582        0.40472169       -1.03999435
 C           -3.18104066       -1.58859058       -2.14864869
 C           -1.80017460        1.44392758       -2.16011830
 C           -0.92401876        1.41684983       -3.24800565
 C           -0.92924834        0.26670219       -4.13599195
 C           -1.90442757       -0.78052671       -3.91073273
 C           -2.99210216        0.72464003       -2.24718498
 C           -3.03872324       -0.47566516       -3.06680835
