58
Modified xyz file
 C            1.53977837        0.09289287        4.07422323
 C            0.71173627       -1.06497249        3.79597890
 C            1.31414504       -1.80629156        2.69975600
 C            2.61296718        0.11069016        3.09848998
 C            2.45756110       -1.04628785        2.23020881
 C            2.64151228        1.43006150        2.49456377
 C            0.72744546        1.27537606        3.85043865
 C            1.45318251        2.14697295        2.94386617
 C           -0.65615710       -0.60735847        3.64025950
 C           -0.60855134        0.83698416        3.47594332
 C           -1.48464386       -1.34228994        2.80958402
 C            0.47186837       -2.39484871        1.76290919
 C           -0.89739454       -2.41740235        2.02848121
 C            0.90660236       -2.52700250        0.44167124
 C            2.64001010       -0.88612013        0.86068469
 C            1.96064347       -1.72809968       -0.02396287
 C            3.03894917        1.52809186        1.16729829
 C            3.19144985        0.30778551        0.38933857
 C            2.42262843        2.51780347        0.29826944
 C            0.72187760        2.89874165        2.03295703
 C            1.27858460        3.18586819        0.72070112
 C           -1.22930514        1.42761994        2.37408824
 C           -0.69274049        2.60625579        1.85126774
 C           -2.39101084       -0.64129151        1.91894272
 C           -2.18077333        0.70644683        1.64237872
 C           -1.82517075       -2.70796737        0.95271132
 C           -2.70895972       -1.55382151        0.82848074
 C            0.09209967       -3.21200426       -0.46371641
 C           -1.33541855       -3.30364067       -0.19752866
 C            0.26607914       -3.02230539       -1.89447799
 C            2.17708189       -1.58074859       -1.39366534
 C            1.23543937       -2.13898831       -2.34576594
 C            3.05194447        0.66695058       -1.01166502
 C            2.50782768        2.01667661       -1.06626820
 C            2.60923359       -0.29413367       -1.90888804
 C            1.50568976        2.32315180       -1.98083840
 C            0.16489004        3.36909490       -0.19822528
 C           -1.06131051        3.04627288        0.51751930
 C            0.30253860        3.00957721       -1.53479538
 C           -2.70830737        1.23514475        0.46653734
 C           -2.09894684        2.40526939       -0.14192385
 C           -3.00409905       -1.04344112       -0.43615952
 C           -3.12135064        0.33742244       -0.60410463
 C           -2.03524064       -3.06034580       -1.44320876
 C           -1.04995661       -3.02308018       -2.50976209
 C           -2.85543055       -1.86687201       -1.55305061
 C           -1.41241358       -1.94120700       -3.40644580
 C           -2.58115353       -1.27496583       -2.85107537
 C            0.89068225       -1.08771212       -3.29791271
 C            1.69789313        0.07962481       -2.97937439
 C            1.11771851        1.34429249       -2.98493058
 C           -0.42664855       -0.92139790       -3.71562073
 C           -0.82901822        2.44318179       -2.25244675
 C           -2.01345034        2.17227901       -1.57505927
 C           -2.75354600        0.95658690       -1.87125058
 C           -2.36587873        0.15681643       -2.93832456
 C           -0.31185148        1.48659726       -3.21948183
 C           -1.07133197        0.37406670       -3.56761970
