58
Modified xyz file
 C            1.26915392       -0.14990586        3.82352536
 C            2.48486465       -0.31475658        3.05100405
 C            2.37615879       -1.57645974        2.33695304
 C            0.40514792       -1.28506265        3.52962815
 C            1.00507857       -2.02419895        2.44355509
 C           -0.93627755       -0.78066107        3.35253376
 C            0.47734468        1.05554225        3.65471968
 C           -0.91543643        0.64633205        3.64012456
 C            0.90742041        2.05210004        2.78295200
 C            2.86016968        0.70500741        2.08605841
 C            2.11525437        1.86908328        1.98348545
 C            2.91779787       -1.37847697        1.01032805
 C            3.27647855        0.02575390        0.87378421
 C            2.29615351       -1.99277767       -0.07010662
 C            0.28433830       -2.21107708        1.26829986
 C            0.98353468       -2.46117359        0.08453767
 C           -1.70781483       -1.23574488        2.28731150
 C           -1.09028508       -1.92053276        1.22179627
 C           -2.92418504       -0.59063040        2.08427776
 C           -1.86115074        1.45736519        3.02460463
 C           -3.02387642        0.81483633        2.43620733
 C           -0.06410043        2.76849021        1.96831174
 C           -1.41824238        2.48535401        2.09020513
 C            1.87402447        2.43949967        0.67091003
 C            0.50585908        2.93273430        0.64142288
 C            3.10332466        0.62615513       -0.37486102
 C            2.38616737        1.83405412       -0.47602544
 C            2.72742408       -1.59125142       -1.32964896
 C            3.19576116       -0.22369657       -1.47926511
 C            1.95905096       -1.93746553       -2.51072373
 C            0.28062344       -2.92226177       -1.01989404
 C            0.76417353       -2.62581813       -2.36064099
 C           -1.82124205       -2.23412486        0.06327782
 C           -1.16753483       -2.81150434       -1.02537233
 C           -3.62798149       -0.76130458        0.83609419
 C           -3.02958651       -1.58551224       -0.18976752
 C           -3.35890740        1.53584782        1.22095675
 C           -2.21244606        2.35117206        0.88040031
 C           -3.82537504        0.56421383        0.26087801
 C           -0.26997664        2.69160336       -0.49182076
 C           -1.56273516        2.17694565       -0.34420621
 C            1.80410308        2.20934728       -1.68890694
 C            0.39064453        2.55380459       -1.70621245
 C            2.81901770        0.23746297       -2.79914916
 C            2.01963156       -0.80474596       -3.42506438
 C            2.09658643        1.48058883       -2.90576322
 C           -0.23118976        1.78831543       -2.76640976
 C            0.78324974       -0.20068563       -3.89909225
 C            0.83211101        1.21309079       -3.57455122
 C           -0.37585190       -2.22826069       -3.16597105
 C           -1.57176679       -2.40971484       -2.36400253
 C           -0.41182456       -0.88572518       -3.72300516
 C           -3.18339769       -0.85450604       -1.43638915
 C           -3.21990734        0.54029589       -1.05414491
 C           -2.10436708        1.33150785       -1.33139584
 C           -1.35428621        1.02706924       -2.47041337
 C           -2.38609927       -1.21697478       -2.50679744
 C           -1.54480402       -0.19856274       -3.11854210
