58
Modified xyz file
 C            1.26147784       -0.27774830        3.90749641
 C            2.52172650       -0.45976271        3.21384539
 C            2.45405577       -1.71527020        2.48565073
 C            0.44453471       -1.45699067        3.66694661
 C            1.17959893       -2.34530345        2.78849830
 C           -0.87809200       -1.01306423        3.26569716
 C            0.45742539        0.89676868        3.60764255
 C           -0.87259123        0.44146324        3.23996586
 C            1.02307226        1.95681715        2.91120169
 C            2.95943941        0.56898090        2.28979445
 C            2.36158257        1.82206089        2.34479820
 C            2.79496457       -1.44963869        1.09622761
 C            3.17603353       -0.05506868        0.98920808
 C            2.02071628       -2.01432980        0.09063870
 C            0.49569645       -2.97859424        1.76145413
 C            1.07965512       -2.98533562        0.43190485
 C           -1.56313621       -1.69394923        2.25997372
 C           -0.93488816       -2.74806680        1.59216334
 C           -2.63019104       -1.04057809        1.64688829
 C           -1.58676286        1.08646117        2.23280550
 C           -2.68734447        0.41114881        1.72136088
 C            0.20882578        2.66682225        1.94053160
 C           -0.95495205        2.07145792        1.45852400
 C            2.41523636        2.65709393        1.16207766
 C            1.11710773        3.29606852        1.00786344
 C            2.86123063        0.64707901       -0.17241725
 C            2.73664079        2.03516886       -0.10895446
 C            1.92552656       -1.37114442       -1.14567400
 C            2.34237998       -0.03845046       -1.27713941
 C            1.19792223       -1.98370401       -2.16766919
 C            0.00877900       -3.29875669       -0.49357954
 C           -1.24706981       -3.01054759        0.19155638
 C            0.15424666       -2.93598430       -1.82198451
 C           -3.04639849       -1.42442880        0.30760091
 C           -2.23589164       -2.26475850       -0.44935499
 C           -3.32527353        0.89814463        0.51943822
 C           -3.64016513       -0.25206299       -0.31315302
 C           -1.37256455        2.32355263        0.13875320
 C           -2.61000752        1.85346675       -0.29635901
 C            0.78820769        3.26717378       -0.40139352
 C            1.94037145        2.72170694       -1.10597645
 C           -0.48707563        2.87505955       -0.79905680
 C            2.03015749        0.68114041       -2.43320795
 C            1.73049011        2.10060281       -2.32628224
 C            0.72858481       -1.20469863       -3.30022738
 C            1.12984797        0.11598616       -3.42494709
 C           -1.03418957       -2.57813040       -2.56961235
 C           -2.20480373       -2.12661074       -1.83848592
 C           -0.66926528       -1.54348655       -3.52141066
 C           -3.28109408        0.07835041       -1.67913419
 C           -2.76895271        1.44112560       -1.67989718
 C           -2.66243688       -0.89000470       -2.45952226
 C           -1.67605501       -0.49584404       -3.45391622
 C           -0.69369163        2.64521860       -2.15929165
 C            0.45600554        2.32060994       -2.98484872
 C            0.13559723        1.12780906       -3.74659489
 C           -1.80058176        1.81298120       -2.60033532
 C           -1.27366239        0.83199373       -3.54008167
