58
Modified xyz file
 C            1.41740877        0.02783637        4.24731745
 C            0.69262515       -1.19896243        3.96974888
 C            1.59756374       -2.08767374        3.28098065
 C            2.60700149        0.02684603        3.41169685
 C            2.78863074       -1.32181995        2.92990376
 C            2.46278521        1.09711418        2.44085925
 C            0.58676310        1.13687574        3.81604071
 C            1.37643473        1.94313344        2.90961212
 C           -0.54986352       -0.84180497        3.31584552
 C           -0.67283280        0.60435512        3.32380051
 C           -0.95956667       -1.51975386        2.17619388
 C            1.13919963       -2.74144808        2.06829283
 C           -0.13941540       -2.48849460        1.57105174
 C            3.01459764       -1.52371116        1.51419133
 C            2.25375131       -2.70391187        1.14556432
 C            2.57239722        0.82202837        1.07117919
 C            3.02611446       -0.43486697        0.63922317
 C            2.02224540        1.73242137        0.15456723
 C            0.69140142        2.69108653        1.97239674
 C            1.24232938        2.78291555        0.63813542
 C           -1.26981027        1.23031165        2.22652009
 C           -0.73280980        2.43978668        1.79260553
 C           -1.96813261       -0.93802476        1.42319265
 C           -2.01094771        0.46010645        1.32139246
 C           -2.55353778       -1.72137151        0.44498593
 C           -0.42769495       -2.90032979        0.26291646
 C           -1.69819822       -2.65643835       -0.25611055
 C            2.00328469       -2.92364202       -0.19916064
 C            0.62445502       -3.09588186       -0.63765111
 C            3.05386007       -0.71966829       -0.72135579
 C            2.65172861       -2.04808072       -1.15843297
 C            2.03175706        1.45876131       -1.22023732
 C            2.51163934        0.23294777       -1.66846574
 C            1.19413588        2.17468924       -2.08244548
 C            0.17419410        3.30853861       -0.18267008
 C           -1.07427038        2.93545193        0.47285588
 C            0.26940370        3.16596583       -1.55411689
 C           -2.56113193        1.06468955        0.17930039
 C           -2.05943021        2.29529330       -0.27226522
 C           -3.43582860       -1.10606711       -0.52370726
 C           -3.45285671        0.33752678       -0.61201391
 C           -1.81912864       -2.33751569       -1.66728744
 C           -3.06317649       -1.61581287       -1.83495717
 C            0.51473454       -2.54827056       -1.98421165
 C            1.76597021       -1.90083003       -2.29960203
 C            1.73345050       -0.50454946       -2.65628288
 C           -0.67661764       -1.93518319       -2.35355536
 C            0.49620543        1.44322761       -3.12782072
 C            0.54213991        0.05312261       -3.10030369
 C           -0.65422298       -0.68524839       -3.00273189
 C           -0.96433855        3.06898417       -2.31522164
 C           -2.16497614        2.64677582       -1.61950423
 C           -0.74786951        2.12834518       -3.40084377
 C           -3.58780879        0.64860539       -2.02193347
 C           -3.09780593       -0.50569054       -2.75939022
 C           -1.86220443       -0.10066352       -3.40262350
 C           -2.90121835        1.80753645       -2.54166580
 C           -1.95251343        1.34043724       -3.54380254
