58
Modified xyz file
 C            1.56924271        0.10142316        3.97537675
 C            0.74281209       -1.08675873        3.85587199
 C            1.27247379       -1.89183305        2.76901242
 C            2.53099631        0.08049304        2.88907965
 C            2.43921773       -1.20516411        2.22986777
 C            2.32878466        1.26386845        2.08133469
 C            0.71020936        1.25432897        3.77977053
 C            1.16300396        1.96401749        2.59289323
 C           -0.64220949       -0.66310589        3.79851160
 C           -0.66489285        0.79504129        3.82569422
 C           -1.50960135       -1.35019494        2.95794902
 C            0.39609286       -2.52050815        1.88450812
 C           -0.98180251       -2.34782506        2.03346259
 C            0.89795066       -2.94255610        0.65647157
 C            2.66035694       -1.26006783        0.85767908
 C            2.12998827       -2.34555408        0.16803344
 C            2.46708883        1.14539051        0.70938377
 C            2.89833579       -0.06867742        0.16310066
 C            1.77778721        2.04150358       -0.09783363
 C            0.20875239        2.44560889        1.69360155
 C            0.52776198        2.51637508        0.32572025
 C           -1.59859821        1.47757918        3.05876887
 C           -1.12559757        2.46853536        2.10361762
 C           -2.58062958       -0.63460760        2.28147938
 C           -2.67422713        0.74413463        2.41164564
 C           -1.84615315       -2.36396712        0.86212944
 C           -2.78499654       -1.25773915        0.97984211
 C            0.00440307       -3.10094198       -0.48087259
 C           -1.31989566       -2.67390372       -0.38649071
 C            2.08003389       -2.32845734       -1.28466836
 C            0.78051717       -2.84474812       -1.68872437
 C            3.14778031       -0.12675035       -1.20648699
 C            2.64571684       -1.25946263       -1.96778671
 C            2.16511727        2.15420201       -1.42688490
 C            2.93771593        1.06992509       -2.00522550
 C            1.18827834        2.56729233       -2.40680625
 C           -0.46511531        2.83350408       -0.62030433
 C           -0.18206230        2.72153947       -1.97562115
 C           -2.17213556        2.63873496        1.12229091
 C           -3.10571568        1.53171765        1.27309509
 C           -1.80203351        2.71536046       -0.27076988
 C           -3.07855319       -0.48517416       -0.14613418
 C           -3.24273378        0.89232282       -0.02432575
 C           -2.62371711        1.76885109       -1.00628478
 C           -1.98003003       -2.20096715       -1.51714037
 C           -2.80542169       -1.00841625       -1.40636440
 C            0.15169660       -2.33552166       -2.81769320
 C           -1.28460305       -2.14177434       -2.79073964
 C            2.00089069       -0.74404813       -3.16599656
 C            2.29506615        0.67606195       -3.24875348
 C            1.21215207        1.60784638       -3.49996304
 C            0.73979420       -1.21075673       -3.52926018
 C           -1.01445032        1.83987844       -2.78185147
 C           -2.11970034        1.22289345       -2.18546391
 C           -2.42028306       -0.10654962       -2.48255857
 C           -1.57943267       -0.85488186       -3.40129428
 C           -0.13486360        1.09321657       -3.67204642
 C           -0.33056285       -0.27073314       -3.84584635
