58
Modified xyz file
 C            1.46721043        0.06857704        4.13057737
 C            0.62147065       -1.06624950        3.81241861
 C            1.24910093       -1.81485786        2.73598618
 C            2.55327694        0.09182462        3.16868250
 C            2.39829821       -1.05266045        2.28392536
 C            2.60202112        1.42054424        2.58552035
 C            0.68019396        1.27061577        3.92642796
 C            1.45050525        2.16662976        3.08182105
 C           -0.72938762       -0.57580942        3.60645534
 C           -0.64553190        0.86962808        3.47967655
 C           -1.53513663       -1.27400237        2.72486207
 C            0.42719870       -2.40637056        1.78371673
 C           -0.95049468       -2.38806717        2.00130984
 C            0.89978883       -2.55823255        0.47750029
 C            2.58945217       -0.88050898        0.91702884
 C            1.94676216       -1.74206121        0.02423791
 C            2.97264086        1.53580000        1.25105727
 C            3.11207468        0.32858425        0.45023416
 C            2.35105761        2.54708801        0.40854445
 C            0.75193770        2.99755328        2.21556156
 C            1.31794766        3.32267457        0.91730218
 C           -1.19347544        1.50792361        2.36526809
 C           -0.66548799        2.74535860        2.00630801
 C           -2.31853041       -0.53328906        1.75276203
 C           -1.96157142        0.77409751        1.44569741
 C           -1.84169647       -2.66657188        0.89519681
 C           -2.62891146       -1.45673462        0.67600567
 C            0.10712868       -3.25632986       -0.43721618
 C           -1.32839393       -3.33025548       -0.20653134
 C            0.31957518       -3.09083321       -1.86591948
 C            2.16361588       -1.57121684       -1.34280792
 C            1.26443012       -2.17676027       -2.30759143
 C            2.91806825        0.71046150       -0.93807433
 C            2.25425656        2.00333146       -0.94214417
 C            2.51207853       -0.25328069       -1.84312813
 C            1.09122698        2.18155201       -1.69567208
 C            0.21279668        3.68376578        0.04989112
 C           -1.02412053        3.33527409        0.73855680
 C            0.13332032        3.10735834       -1.28077964
 C           -2.19892265        1.26012143        0.15119854
 C           -1.82485888        2.56162725       -0.18442625
 C           -1.26874387        2.80910783       -1.50027928
 C           -2.78425328       -0.97813892       -0.62226126
 C           -2.57150132        0.38554339       -0.88246498
 C           -1.98894408       -3.12975570       -1.47984594
 C           -0.97506448       -3.16208209       -2.51922094
 C           -2.75738298       -1.91293802       -1.66251844
 C           -1.33103416       -2.15416495       -3.50163858
 C           -2.53698381       -1.48877606       -3.02961165
 C            0.90252696       -1.14679646       -3.27723885
 C            1.52341802        0.09765633       -2.84626029
 C            0.75020728        1.24947682       -2.68297954
 C           -0.36773529       -1.12169327       -3.84147618
 C           -1.59750351        1.93079106       -2.51242543
 C           -2.51383162        0.85374855       -2.19945087
 C           -2.39857899       -0.07917550       -3.30099318
 C           -0.51807632        1.31464535       -3.26201026
 C           -1.08743358        0.13625243       -3.89876442
