58
Modified xyz file
 C            1.24284187       -0.02053859        3.78315790
 C            2.52022722       -0.27452938        3.14492244
 C            2.49556172       -1.63955340        2.64963560
 C            0.41156876       -1.20071321        3.59366343
 C            1.12586863       -2.11446975        2.73218048
 C           -0.89839415       -0.75592371        3.18262387
 C            0.46575949        1.13729091        3.37511357
 C           -0.90368667        0.69886506        3.18429182
 C            1.00768917        2.05157358        2.48600700
 C            2.94801153        0.58265903        2.05367570
 C            2.25634477        1.75603182        1.79003134
 C            3.14683623       -1.65646313        1.35514648
 C            3.34542861       -0.26957503        0.94530839
 C            2.68850720       -2.56547614        0.41403674
 C            0.51198677       -2.58551401        1.57239227
 C            1.33013314       -3.07768760        0.55039767
 C           -1.55565742       -1.41363582        2.14907582
 C           -0.83203528       -2.27321877        1.30408823
 C           -2.72304475       -0.80913321        1.68468630
 C           -1.73552298        1.34873451        2.27302864
 C           -2.85130712        0.62979890        1.84398627
 C            0.12790000        2.72604700        1.55027540
 C           -1.22185915        2.38980807        1.47718605
 C            2.11206309        2.19735884        0.41522822
 C            0.86840099        2.94502602        0.31738402
 C            3.05756694        0.10919082       -0.37004314
 C            2.48798651        1.36307576       -0.63470840
 C            2.89868606       -2.25838690       -0.98551289
 C            3.07447792       -0.86869530       -1.36503811
 C            0.79442201       -3.28220028       -0.78565774
 C            1.76842835       -2.78113320       -1.73552287
 C           -1.40343088       -2.70184542        0.10488124
 C           -0.54856321       -3.03988740       -1.01689465
 C           -3.27295520       -1.15946714        0.38696422
 C           -2.55496859       -2.00621547       -0.43760293
 C           -3.67768485        1.12698972        0.76598729
 C           -3.86347519        0.03877802       -0.18249820
 C           -1.92952873        2.84837708        0.36595995
 C           -3.22282770        2.28443582        0.03343133
 C            0.18303856        2.97159314       -0.89501085
 C           -1.21167900        3.07950757       -0.88017045
 C            2.00456785        1.65821830       -1.90905749
 C            0.83388786        2.51642191       -2.04258087
 C            2.32018744       -0.66773308       -2.58660563
 C            1.36249657       -1.76164734       -2.68673336
 C            1.91081590        0.61222514       -2.91566908
 C           -0.94785370       -2.19973422       -2.14044322
 C           -2.21395291       -1.57388418       -1.78781748
 C            0.00693453       -1.47595430       -2.85477632
 C           -3.40384889        0.50010583       -1.48028748
 C           -3.20234123        1.93438254       -1.37675715
 C           -2.00702290        2.50786378       -1.96235569
 C           -2.47979578       -0.26495405       -2.19172587
 C            0.05050407        2.02063467       -3.15895896
 C            0.64108273        0.77013844       -3.59834395
 C           -0.35884681       -0.27331658       -3.45323642
 C           -1.36648982        1.79973367       -2.96568294
 C           -1.61343956        0.36662070       -3.08505556
