58
Modified xyz file
 C            1.07641969        0.02628149        4.01890095
 C            2.24745705       -0.23284394        3.21223763
 C            2.17078854       -1.61603510        2.78010477
 C            0.23860076       -1.16602281        3.97988622
 C            0.79839369       -2.04307893        2.97421650
 C           -1.13326408       -0.73585924        3.83591399
 C            0.23176828        1.14849502        3.67261255
 C           -1.13818283        0.71652840        3.88237155
 C            0.51486882        1.92755851        2.55036084
 C            2.46622950        0.56954177        2.02556139
 C            1.55334913        1.56136299        1.67133181
 C            2.71933269       -1.68787333        1.44085114
 C            2.96011621       -0.32327430        0.99098767
 C            2.12859624       -2.57031019        0.55214353
 C            0.05027819       -2.40085473        1.84952594
 C            0.74186146       -2.96367186        0.78067060
 C           -1.85920761       -1.12139142        2.64364111
 C           -1.21058558       -1.82429129        1.62326411
 C           -2.15623955        1.18261363        2.95521658
 C           -2.70887947        0.00508983        2.29882919
 C           -0.50080665        2.76785825        2.10057530
 C           -1.88101008        2.31547390        2.19830016
 C           -0.35240291        3.46006073        0.84031526
 C            1.55107242        2.00953291        0.34519087
 C            0.73086990        3.06962704       -0.03216861
 C            2.71762994       -0.00067502       -0.34292875
 C            2.19841429        1.26271171       -0.64687825
 C            2.26345285       -2.30718167       -0.86441143
 C            2.63303265       -1.03325490       -1.28632879
 C            0.09995709       -3.07800408       -0.51542577
 C            1.15002987       -2.96825643       -1.51792249
 C           -1.75760704       -1.79739900        0.33146673
 C           -1.12189981       -2.45077038       -0.72872829
 C           -3.17809087        0.10068750        0.99773861
 C           -2.83095623       -0.94815210        0.05699631
 C           -2.47751669        2.45984740        0.88084151
 C           -1.59141351        3.29478786        0.09191750
 C           -3.08850714        1.36670022        0.28066210
 C            0.19924382        3.09975807       -1.38112840
 C           -1.22967259        2.87939913       -1.25353970
 C            2.05032966        1.64069274       -1.98048800
 C            0.88163650        2.41207002       -2.36642043
 C            2.48693963       -0.72423485       -2.63525457
 C            2.26055955        0.65296293       -3.02226431
 C            0.82004577       -2.58841255       -2.81141647
 C            1.62035003       -1.55828572       -3.45608963
 C           -1.52971371       -2.19156803       -2.03889216
 C           -0.57299645       -2.32755602       -3.12675925
 C           -2.96119782       -0.37715044       -1.26908134
 C           -2.81265257        1.06015190       -1.11818698
 C           -1.78631925        1.72168471       -1.79841721
 C           -2.32044954       -1.00546741       -2.31958311
 C            0.12134271        1.56453176       -3.26435299
 C            1.09248356        0.68374222       -3.89152873
 C            0.72187437       -0.68297508       -4.19174423
 C           -0.63493952       -1.10787142       -3.91914151
 C           -1.11683704        1.07070842       -2.84113008
 C           -1.54597638       -0.19773882       -3.24242092
