58
Modified xyz file
 C            0.92118569        0.13385627        4.62363131
 C            0.22204944       -1.05970912        4.17833922
 C            1.20342441       -1.96096818        3.62443906
 C            2.28381151        0.06226535        4.11989502
 C            2.45620548       -1.23106821        3.49196704
 C            2.52505783        1.25192137        3.33128208
 C            0.28088720        1.28082925        4.00258575
 C            1.30405389        2.04680003        3.33353236
 C           -0.87936531       -0.64701935        3.32811057
 C           -0.83380233        0.79887149        3.21214658
 C           -1.18260291       -1.37732355        2.17812313
 C            0.91495495       -2.56386553        2.34020357
 C           -0.35287194       -2.43874930        1.78142019
 C            2.85686814       -1.30085677        2.09386468
 C            2.06236556       -2.34905091        1.47545526
 C            2.94883077        1.11785290        1.94600794
 C            3.12999653       -0.14157778        1.36761996
 C            1.05880582        2.46609369        1.96679134
 C            2.23926111        2.14063884        1.19625257
 C           -1.09051161        1.35188857        1.95979101
 C           -0.18159893        2.24248370        1.37248899
 C           -1.97600916       -0.75104506        1.21337418
 C           -1.94074681        0.64511412        1.11683096
 C           -2.43196676       -1.49631548        0.12685073
 C           -0.49136562       -2.93425707        0.49127182
 C           -1.65502381       -2.57071429       -0.29367846
 C            1.85375988       -2.32829166        0.09684802
 C            0.66641481       -2.87315713       -0.39207630
 C            3.13787108       -0.22755187       -0.02095076
 C            2.53731214       -1.38603597       -0.67094909
 C            2.08497825        1.98193029       -0.17288502
 C            2.76679421        0.94172548       -0.79968584
 C           -0.27060466        2.44702334       -0.00625823
 C            0.91243521        2.45180830       -0.76168638
 C           -2.34831499        1.24947981       -0.06586920
 C           -1.48877378        2.19133614       -0.64223088
 C           -3.26920129       -0.88017852       -0.79991080
 C           -3.28180188        0.56957006       -0.84159787
 C           -3.22983201       -1.34401689       -2.17541985
 C           -1.25810009       -2.66002299       -1.69153535
 C            0.18504282       -2.50691612       -1.71551912
 C           -2.01696813       -1.99005238       -2.63564868
 C            1.98713084       -0.94146191       -1.94767715
 C            2.30537942        0.46937896       -2.09657135
 C            0.74825763       -1.41819665       -2.37424445
 C            0.83230586        2.40480577       -2.14885256
 C            1.44165095        1.27176611       -2.82496566
 C           -1.63537471        2.57200481       -1.97630615
 C           -0.44333509        2.65910108       -2.78966737
 C           -3.53482437        0.97994711       -2.20873217
 C           -3.48816987       -0.20897476       -3.04288056
 C           -2.65975418        1.96340566       -2.80429293
 C           -1.34942006       -1.04936939       -3.52127700
 C           -0.04171471       -0.64307905       -3.23267657
 C            0.38713072        0.63802644       -3.59282820
 C           -0.58668407        1.68364734       -3.85702763
 C           -2.34619332       -0.06834913       -3.92880919
 C           -1.98928975        1.33460274       -3.93641259
