58
Modified xyz file
 C            1.23819817        0.07315802        4.04670014
 C            2.47525874       -0.09219419        3.31558182
 C            2.48826530       -1.44300307        2.78481196
 C            0.39174231       -1.07687783        3.75369519
 C            1.14203041       -1.97808834        2.90682601
 C           -0.87755670       -0.58013282        3.27432865
 C            0.45454536        1.26662262        3.81107767
 C           -0.90772453        0.84316107        3.53574307
 C            0.84637554        2.18135105        2.74930597
 C            2.77717163        0.81043514        2.21732506
 C            1.98074308        1.93298672        1.97198382
 C            3.09137275       -1.39922623        1.46230892
 C            3.22003982        0.00194452        1.09012695
 C            2.63236098       -2.29810007        0.51422296
 C            0.54693192       -2.51374767        1.76761553
 C            1.40877962       -3.02588887        0.80429129
 C           -1.36318873       -1.02668655        2.05193358
 C           -0.73727917       -2.08838522        1.38101638
 C           -2.28701283       -0.23284966        1.37289230
 C           -1.43644579        1.71011002        2.50080877
 C           -0.37782338        2.62708671        2.10108869
 C           -2.23643965        1.16051635        1.50689224
 C           -0.33066446        3.06455564        0.77802538
 C            2.06985372        2.53443136        0.71923329
 C            0.91591826        3.23600332        0.17832358
 C            2.89427083        0.42427399       -0.19825089
 C            2.66612281        1.78309100       -0.37420435
 C            2.51838214       -1.85865888       -0.86216942
 C            2.38639751       -0.49794448       -1.12733074
 C            0.87563444       -3.47517863       -0.45885459
 C            1.62629047       -2.79742458       -1.50898376
 C           -1.31376902       -2.57721308        0.19661179
 C           -0.52908214       -3.26509733       -0.72993239
 C           -3.00369446       -0.80005548        0.32819923
 C           -2.53325412       -2.05326440       -0.23362466
 C           -3.46165663        0.04015525       -0.76618497
 C           -2.48869549        1.95729515        0.39719622
 C           -1.47223552        2.91185948       -0.01449362
 C           -3.07947694        1.37510354       -0.79313473
 C           -1.37142973        2.85296259       -1.46725444
 C           -2.37445592        1.91560162       -1.95027941
 C            1.03881073        3.21125808       -1.26979260
 C            2.08312982        2.25554397       -1.60919701
 C           -0.12404508        2.89520633       -2.07519692
 C            1.58022145       -0.06960500       -2.19843669
 C            1.51428163        1.28509857       -2.51767302
 C            0.26169836        1.83835710       -2.99853882
 C            0.66464252       -2.29723526       -2.46582183
 C           -0.61286169       -2.90824998       -2.13524898
 C            0.69372782       -0.95529562       -2.83043761
 C           -2.83994311       -2.04108507       -1.65737038
 C           -3.41163136       -0.74501874       -1.98560946
 C           -1.77652848       -2.31907975       -2.60720739
 C           -2.08032402        1.09606766       -3.03608861
 C           -0.70193441        0.96782038       -3.48472651
 C           -0.39616823       -0.45067594       -3.53961811
 C           -2.69813461       -0.21636086       -3.13268421
 C           -1.65974190       -1.16943361       -3.48982036
