58
Modified xyz file
 C            1.43744134        0.08578289        4.25476830
 C            0.66662210       -1.10384458        3.94152873
 C            1.51981581       -1.98473093        3.17826759
 C            2.60596829        0.08452929        3.39068291
 C            2.73312399       -1.24891208        2.84696970
 C            2.47263404        1.19864589        2.46695708
 C            0.63286361        1.23862945        3.89468869
 C            1.41865301        2.05508050        2.99125901
 C           -0.58570266       -0.67765822        3.34962389
 C           -0.66322046        0.76905342        3.43042134
 C           -1.05119784       -1.28635163        2.19381754
 C            1.00633310       -2.54611124        1.94158327
 C           -0.28260090       -2.24931314        1.51936496
 C            2.93700721       -1.39070787        1.42058472
 C            2.06872199       -2.46234856        0.96546731
 C            2.55048564        0.96672151        1.08781799
 C            3.04985673       -0.25779548        0.61648045
 C            1.88862406        1.83968541        0.21166163
 C            0.72496365        2.85614625        2.10368909
 C            1.18478108        2.92027923        0.73196204
 C           -1.27945136        1.46787243        2.38880208
 C           -0.71702916        2.69107545        2.01931699
 C           -2.06408097       -0.64197997        1.49877514
 C           -2.06989515        0.76216941        1.46268060
 C           -2.71552035       -1.37220458        0.51823602
 C           -0.61955246       -2.56883215        0.20322973
 C           -1.94158305       -2.37034702       -0.19347488
 C            1.73975447       -2.48388006       -0.38542492
 C            0.39875523       -2.67599916       -0.75900047
 C            3.09032759       -0.48703994       -0.75444939
 C            2.57977942       -1.76079741       -1.22995152
 C            1.74126229        1.50254254       -1.13657409
 C            2.56882999        0.51934554       -1.65688641
 C            0.60380286        1.91273903       -1.85255617
 C            0.08579387        3.47456675       -0.03080657
 C           -1.11724109        3.31558916        0.77865987
 C           -0.20176972        2.92680368       -1.34210053
 C           -2.64552351        1.44131276        0.37220269
 C           -2.10146907        2.65351937       -0.04484758
 C           -1.64265182        2.77840908       -1.41698925
 C           -3.55988435       -0.68808974       -0.43009650
 C           -3.42876194        0.74711685       -0.54876011
 C           -2.28289614       -2.27901602       -1.60212116
 C           -3.33024610       -1.27921586       -1.73946716
 C            0.06789853       -2.71831592       -2.11679880
 C           -1.26884582       -2.34735435       -2.54780373
 C            2.23131042       -1.59251477       -2.62360831
 C            2.18824020       -0.15944232       -2.88146807
 C            0.99003260       -2.16779810       -3.09353395
 C            0.10901803        1.13543251       -2.90797354
 C           -1.13510867       -1.29554587       -3.55395054
 C            0.90118908        0.13980454       -3.47122904
 C            0.28198235       -1.12811466       -3.81766747
 C           -2.17299569        1.91812830       -2.36434899
 C           -3.27054434        1.05466722       -1.96224216
 C           -3.14673309       -0.19890222       -2.68744394
 C           -1.26360468        1.11861311       -3.17101578
 C           -1.91776225       -0.15109776       -3.45690830
