58
Modified xyz file
 C            1.47723046        0.05240519        4.22100385
 C            0.67712459       -1.15589469        4.26437601
 C            1.42572752       -2.19803603        3.58911806
 C            2.58444594       -0.17983052        3.30419187
 C            2.57556711       -1.57667166        2.94722207
 C            2.49107801        0.80272795        2.24117813
 C            0.65282186        1.10306888        3.65328945
 C            1.40439299        1.70205889        2.57823647
 C           -0.65588192       -0.83013273        3.78056012
 C           -0.64665242        0.55258041        3.32788134
 C           -1.34534441       -1.76854734        3.02982762
 C            0.74011723       -3.00304910        2.59469825
 C           -0.64500962       -2.94911708        2.52780722
 C            2.53665160       -1.92317381        1.54253440
 C            1.51025504       -2.93657887        1.35929110
 C            2.62954984        0.42207551        0.89828243
 C            2.68986732       -0.94332239        0.56207796
 C            2.23214600        1.35880177       -0.07392437
 C            0.70770203        2.23408027        1.51416516
 C            1.43091439        2.42648886        0.35573149
 C           -1.20975830        0.88781524        2.09185695
 C           -0.65411566        1.94632325        1.36719778
 C           -2.21751807       -1.30224159        1.96890055
 C           -2.03317878       -0.02677206        1.42937824
 C           -1.28217804       -3.33102317        1.28567820
 C           -2.39069649       -2.41757784        1.06966380
 C            0.86563641       -3.02151383        0.12228628
 C           -0.48789756       -3.35002254        0.06761782
 C            2.42447649       -1.33418456       -0.74361386
 C            1.45468952       -2.39597361       -0.97387859
 C            2.25326040        1.00647490       -1.43323081
 C            2.24991400       -0.33666405       -1.77548148
 C            1.78919970        1.90979966       -2.38806348
 C            0.85932197        3.27727453       -0.56798256
 C            1.29146585        3.18854637       -1.93770966
 C           -1.27318330        2.36720537        0.18551017
 C           -0.58942592        3.32707028       -0.57092829
 C           -2.40972000        0.22655283        0.10089163
 C           -2.18283020        1.50205261       -0.44324792
 C           -2.44533241       -2.13323003       -0.33997912
 C           -1.32258464       -2.79432220       -0.98623080
 C           -2.73856427       -0.84619555       -0.75107078
 C            0.64704605       -2.02274290       -2.12793523
 C            1.24128412       -0.82333977       -2.70450659
 C           -0.73921242       -2.16285678       -2.08646174
 C            0.87606680        1.42791837       -3.41753111
 C            0.44047953        0.10112986       -3.36707979
 C            0.16697840        3.57079997       -2.77373252
 C           -1.00962103        3.64446485       -1.91960448
 C           -0.05663671        2.50141448       -3.72735235
 C           -2.64630757        1.78028688       -1.73522101
 C           -2.03985242        2.83685834       -2.52410856
 C           -1.47516652        2.22174182       -3.72061843
 C           -2.65799055       -0.65310213       -2.11790842
 C           -1.52888772       -1.26238747       -2.80438256
 C           -0.90138363       -0.21382011       -3.59245127
 C           -2.84292509        0.67520149       -2.64296124
 C           -1.89755552        0.83910560       -3.73325740
