58
Modified xyz file
 C            1.57837921        0.11809181        4.32283745
 C            0.74808062       -1.07020331        4.24528850
 C            1.45379594       -2.04786393        3.43995369
 C            2.66174547       -0.03655409        3.36545824
 C            2.62183811       -1.39300599        2.87006568
 C            2.56435966        1.05093224        2.40916974
 C            0.77485663        1.24801214        3.89226568
 C            1.52413581        1.95482792        2.87375898
 C           -0.58402455       -0.66226829        3.83357004
 C           -0.55234125        0.76397231        3.55006620
 C           -1.31022102       -1.48856499        2.99118766
 C            0.73939104       -2.70315103        2.35648407
 C           -0.63815419       -2.57020083        2.27341644
 C            2.58268034       -1.59976838        1.43755345
 C            1.52713739       -2.54746749        1.14700204
 C            2.66288292        0.79451550        1.03940062
 C            2.74474033       -0.52787118        0.56508180
 C            2.28570435        1.81239666        0.15604595
 C            0.80408169        2.65668101        1.92092754
 C            1.33476106        2.73968331        0.57189527
 C           -1.16557883        1.25849264        2.39431052
 C           -0.62239394        2.38860922        1.79082089
 C           -2.23425288       -0.88016184        2.05629145
 C           -2.04388970        0.44671718        1.66573823
 C           -1.27116490       -2.67331437        0.96981523
 C           -2.48357409       -1.88194453        1.04040909
 C            0.89257532       -2.43986768       -0.08816126
 C           -0.49599740       -2.60962441       -0.18942054
 C            2.48433074       -0.76729884       -0.78276630
 C            1.56925613       -1.78074351       -1.11285406
 C            2.46209107        1.61855396       -1.20902654
 C            2.72488126        0.27407305       -1.66997107
 C            1.50487064        2.20324044       -2.13858268
 C            0.21539009        3.04198720       -0.30288285
 C           -1.00061789        2.72464039        0.43379207
 C            0.29694352        2.70268951       -1.65119509
 C           -2.52045139        0.85406117        0.40934034
 C           -1.99740152        2.00377699       -0.20715334
 C           -3.06022070       -1.47129204       -0.14370847
 C           -3.29447680       -0.05232691       -0.32475869
 C           -1.13687558       -2.32932979       -1.40445224
 C           -2.47706276       -1.93552487       -1.38866923
 C            1.05614475       -1.88594594       -2.40025532
 C           -0.36843400       -2.11472929       -2.55078220
 C            2.27886243        0.18105892       -3.04537246
 C            1.52222889        1.38840632       -3.34210985
 C            1.47596039       -0.95639133       -3.43064799
 C           -0.85025368       -1.23018706       -3.60724196
 C            0.26559906        0.99145931       -3.94560008
 C            0.28245754       -0.45615063       -4.08973287
 C           -0.89102822        2.46146478       -2.34529961
 C           -2.09933510        2.17764930       -1.58635767
 C           -0.90426492        1.61384391       -3.53206479
 C           -3.50354431        0.13809752       -1.74757782
 C           -2.97894570       -1.04405313       -2.42006878
 C           -2.08118089       -0.60261137       -3.46842162
 C           -2.93161324        1.30053115       -2.38082085
 C           -2.14286293        0.84995117       -3.51599063
