58
Modified xyz file
 C            1.69555247       -0.13340700        4.28826124
 C            0.86578613       -1.32015813        4.36945474
 C            1.33292002       -2.24711946        3.35844250
 C            2.60805618       -0.30013213        3.16728058
 C            2.33442931       -1.57285460        2.54581517
 C            2.50897725        0.88061922        2.34902994
 C            0.82970948        0.98825059        3.97371724
 C            1.45827416        1.72735331        2.90050397
 C           -0.49040725       -0.94474495        4.00514964
 C           -0.50552977        0.48205126        3.73849071
 C            0.16169081       -2.77065699        2.68455842
 C           -0.93129854       -1.84591350        2.95257960
 C            0.32966069       -3.20264651        1.38330135
 C            2.20861969       -1.64801537        1.15750683
 C            1.50374561       -2.73633757        0.65860203
 C            2.57884297        0.75946899        0.96541796
 C            2.33228745       -0.48988287        0.36167837
 C            2.27855182        1.91386254        0.26026701
 C            0.64666622        2.40213339        1.99395203
 C            1.25891664        2.79244406        0.80858759
 C           -1.17406466        0.93376734        2.60767161
 C           -0.72027551        2.09457286        1.96956994
 C           -1.64906402       -1.31521787        1.87818590
 C           -1.98165331        0.03958874        1.90024801
 C           -0.77778361       -3.05361222        0.46458260
 C           -1.67912492       -2.00980748        0.66153662
 C            1.17662600       -2.78796900       -0.74579964
 C           -0.20366736       -3.24214940       -0.84745763
 C            2.03774121       -0.55567506       -1.02084790
 C            1.60483475       -1.77034876       -1.58639137
 C            2.08960258        1.85235581       -1.16566202
 C            2.06126451        0.61817763       -1.79827215
 C            0.45813834        3.29275762       -0.29323128
 C            1.10091101        2.85985497       -1.52265556
 C           -1.53219389        2.66980677        0.99339525
 C           -0.92545280        3.26228456       -0.18943935
 C           -2.81825696        0.53722345        0.91304395
 C           -2.71232322        1.94186974        0.56351571
 C           -2.32539127       -1.44670740       -0.44865951
 C           -2.97354523       -0.22042032       -0.31570019
 C           -0.93852415       -2.84294504       -1.94733149
 C           -2.03999773       -1.91307697       -1.73633842
 C            1.11449650       -1.80510412       -2.88974877
 C           -0.19980272       -2.38444010       -3.10856296
 C            1.65842089        0.59906863       -3.13202952
 C            1.21212381       -0.63564972       -3.72835649
 C            0.33829363        2.66728583       -2.66549705
 C            0.76890749        1.64731281       -3.60638498
 C           -1.73093819        2.89580959       -1.34691381
 C           -2.81782472        2.05737139       -0.88040776
 C           -2.95475017        0.71961831       -1.42833518
 C           -1.11073949        2.56927974       -2.54749175
 C           -2.04272204       -0.97141518       -2.84830053
 C           -1.00848355       -1.38777842       -3.78123558
 C           -0.10086329       -0.39779823       -4.31840809
 C           -0.42100476        1.00024807       -4.12963228
 C           -2.26346045        0.38133020       -2.58822970
 C           -1.52490402        1.36621693       -3.25702556
