58
Modified xyz file
 C            1.58071701       -0.15907182        4.21340701
 C            0.78895401       -1.37220386        4.09983387
 C            1.64201959       -2.37588403        3.50737999
 C            2.69891725       -0.28814195        3.29697747
 C            2.81198311       -1.68936762        2.96637341
 C            2.50254156        0.66748678        2.21895495
 C            0.76039078        0.93771906        3.74106951
 C            1.44051338        1.56948575        2.62553835
 C           -0.45680093       -1.02271676        3.43282230
 C           -0.57215893        0.42380014        3.49188377
 C           -0.84546124       -1.68101857        2.25850418
 C            1.09309463       -3.20255467        2.45174830
 C           -0.17604140       -2.83167179        1.84376280
 C            2.91714996       -2.05894648        1.57226647
 C            2.07444300       -3.22394035        1.38690792
 C            2.54014680        0.24206046        0.89157879
 C            2.90622900       -1.07844334        0.57792301
 C            1.93714170        1.04908532       -0.08277909
 C            0.63449100        2.12729089        1.64088840
 C            1.04702586        2.06270199        0.30906085
 C           -1.30362155        1.04867204        2.49741493
 C           -0.73376795        2.16551012        1.89080507
 C           -1.68038809       -1.01029851        1.35743071
 C           -2.13830457        0.25800371        1.71621297
 C           -1.71380306       -1.39718716        0.00710632
 C           -0.05588590       -3.10087626        0.42243520
 C            1.35445450       -3.33431106        0.13550611
 C           -0.80077732       -2.34225511       -0.47746257
 C            2.73969615       -1.52363613       -0.72965941
 C            1.89801668       -2.69331532       -0.96478182
 C            2.09452999        0.73166068       -1.43402951
 C            2.45255829       -0.56612991       -1.78086688
 C            1.50253873        1.53338083       -2.40454990
 C            0.26709792        2.72060253       -0.64921418
 C            0.53559830        2.53698791       -2.00428395
 C           -1.53067635        2.88507280        1.01577833
 C           -0.95873814        3.26988541       -0.26345280
 C           -3.03090833        0.91839266        0.88438163
 C           -2.85270071        2.35251320        0.74384558
 C           -2.50712329       -0.68233317       -0.89920000
 C           -3.27824468        0.38427667       -0.44195262
 C           -2.27193309       -0.80756625       -2.27107807
 C           -0.35488604       -2.24985162       -1.79813837
 C            1.01062950       -2.34714296       -2.05309530
 C            1.66449012       -1.27420104       -2.77645995
 C           -1.14845752       -1.60051723       -2.73352787
 C            1.01678566        0.91064578       -3.62710896
 C            0.91175949       -0.53707180       -3.67633670
 C           -0.49772126       -0.86784343       -3.81078013
 C           -0.56156491        2.51672867       -2.96834713
 C           -2.37918391        0.36208621       -3.13790355
 C           -0.29087804        1.46514254       -3.92959154
 C           -1.23105816        0.36580610       -4.02581093
 C           -2.04820029        3.32367061       -1.22456088
 C           -3.21958108        2.72990563       -0.60569592
 C           -3.52113972        1.51088057       -1.33051291
 C           -1.86266607        2.68496993       -2.51028457
 C           -2.80124145        1.56407319       -2.58633268
