58
Modified xyz file
 C            1.46548314        0.04588232        4.20650285
 C            0.65663759       -1.15889149        4.14176534
 C            1.42728399       -2.16060056        3.43168075
 C            2.57633944       -0.11790155        3.28362664
 C            2.62214817       -1.51133557        2.90836243
 C            2.43873052        0.87894904        2.23299724
 C            0.65631232        1.14506670        3.71930203
 C            1.37879095        1.78659532        2.63667897
 C           -0.65642464       -0.79322847        3.63569398
 C           -0.67477366        0.64505558        3.42745306
 C           -1.28353104       -1.61381602        2.70920251
 C            0.80138064       -2.88389223        2.33629613
 C           -0.55037153       -2.71024083        2.08326280
 C            2.70743546       -1.83303352        1.50191155
 C            1.72867504       -2.86874667        1.22054639
 C            2.51855002        0.49733635        0.88816268
 C            2.87839490       -0.82049765        0.55922425
 C            1.92498758        1.33008638       -0.07645800
 C            0.62683887        2.37968278        1.63596012
 C            1.17076606        2.42542514        0.35615860
 C           -1.31835299        1.17778628        2.31251727
 C           -0.76223847        2.32301026        1.74875920
 C           -2.13189699       -1.01246882        1.69460415
 C           -2.11841880        0.36331002        1.50004782
 C           -1.02409821       -2.83003681        0.71865803
 C           -2.10933368       -1.87801293        0.53477251
 C            1.26009501       -2.96606510       -0.08826950
 C           -0.12556245       -3.03623270       -0.32756024
 C            2.82869301       -1.22126209       -0.76897848
 C            2.10391489       -2.44450423       -1.06958405
 C            1.83686788        0.91090969       -1.40889804
 C            2.46851749       -0.26178793       -1.79019479
 C            0.92489015        1.51929035       -2.27904502
 C            0.52824092        3.23163137       -0.57771909
 C            0.45260646        2.78947182       -1.95880645
 C           -1.51142623        3.00745678        0.80604019
 C           -0.78338536        3.73582527       -0.21390911
 C           -2.57466706        0.87491122        0.28114544
 C           -2.55100528        2.26252872        0.12238611
 C           -2.30393341       -1.32526055       -0.72522032
 C           -2.65188009        0.02696987       -0.84235233
 C           -0.62213282       -2.87730678       -1.62197113
 C           -1.76931821       -2.00203404       -1.82471239
 C            1.66624529       -2.36807224       -2.44454450
 C            1.93129155       -1.01236877       -2.90719749
 C            0.28775168       -2.67935626       -2.73421683
 C            0.27526956        0.76026020       -3.26928289
 C           -1.58937152       -1.31284730       -3.09444621
 C            0.73231608       -0.52250918       -3.55428386
 C           -0.24054252       -1.60415505       -3.55314772
 C           -2.81556616        0.55584132       -2.12491576
 C           -1.06594112        1.01233884       -3.55221803
 C           -2.03965340       -0.00778355       -3.21043158
 C           -0.82007238        3.24167372       -2.49863777
 C           -1.60991912        3.77180643       -1.40367727
 C           -2.72217196        2.85965911       -1.18730208
 C           -1.65159778        2.28412715       -3.18965790
 C           -2.79786778        1.99136085       -2.33608024
