58
Modified xyz file
 C            1.45175024        0.03238022        4.09431410
 C            0.59761212       -1.11890824        3.89424580
 C            1.14780174       -1.91741405        2.80876259
 C            2.55495353       -0.08025797        3.16184275
 C            2.29067876       -1.20139265        2.27508212
 C            2.73089898        1.22158239        2.55999355
 C            0.68500126        1.20768668        3.71386594
 C            1.47704135        1.94602473        2.75301766
 C           -0.75760335       -0.62614023        3.74226700
 C           -0.63343127        0.75913182        3.31487780
 C           -1.63844743       -1.43858480        3.05225325
 C            0.24664509       -2.50631570        1.93300073
 C           -1.07825320       -2.58490924        2.36277765
 C            0.51461840       -2.47457203        0.55814943
 C            2.39738511       -0.99583753        0.90024457
 C            1.43919938       -1.55388018        0.04364627
 C            3.30308715        1.26049258        1.30060795
 C            3.17768221        0.07114737        0.46045287
 C            2.98222172        2.39857886        0.46622768
 C            0.84976027        2.50410831        1.63849440
 C            1.67432606        3.00213640        0.63005177
 C           -1.11615621        1.12821188        2.05896375
 C           -0.47171987        2.13849420        1.33350161
 C           -2.51823321       -0.82577242        2.07813005
 C           -2.09950878        0.34103653        1.44489288
 C           -2.09925155       -3.03548410        1.44388410
 C           -3.02255302       -1.91770553        1.27282752
 C           -0.33689609       -3.15188492       -0.30929495
 C           -1.68532120       -3.46841958        0.12846505
 C           -0.43067138       -2.72683826       -1.69142788
 C            1.38562468       -1.17030689       -1.31309225
 C            0.46438483       -1.77984172       -2.18544030
 C            3.07614629        0.51153093       -0.91386596
 C            3.08923729        1.96593440       -0.90932534
 C            2.20413718       -0.12901558       -1.78466937
 C            1.14014399        3.24808357       -0.69871718
 C            2.06305628        2.66018401       -1.66513616
 C           -1.06111711        2.59742918        0.15843097
 C           -0.22962191        3.14603467       -0.90121367
 C           -2.46387996        0.58571504        0.11425342
 C           -2.11078847        1.80458558       -0.45933808
 C           -3.19184765       -1.70955714       -0.14756201
 C           -2.59467412       -2.85175995       -0.81402299
 C           -1.84882362       -2.59925111       -2.02593242
 C           -2.97317032       -0.44591408       -0.69385962
 C           -2.23538620       -1.50725806       -2.78501532
 C           -2.82636321       -0.37265939       -2.08171484
 C            0.13619616       -1.16306234       -3.39509373
 C           -1.26538621       -0.97453128       -3.71342621
 C            1.81894847        0.58877345       -2.91377260
 C            1.55165038        2.01098495       -2.77792362
 C            0.81334036        0.04804165       -3.79274712
 C           -0.73688684        2.65317536       -2.17253996
 C           -1.96521610        1.91520666       -1.90095816
 C           -2.33622987        0.84508988       -2.70413981
 C           -1.49606559        0.45439669       -3.82264621
 C            0.15924835        2.20142700       -3.13771183
 C           -0.19927390        1.07987000       -3.98693764
