58
Modified xyz file
 C            1.59049480        0.03136034        3.90551076
 C            0.73966743       -1.12069643        3.67390499
 C            1.28218982       -1.86459460        2.54881301
 C            2.55625527        0.08863517        2.82341382
 C            2.42238821       -1.12436258        2.03724622
 C            2.39663797        1.36032362        2.14326196
 C            0.76023916        1.21770338        3.81283858
 C            1.38010456        2.11873686        2.85808643
 C           -0.63359969       -0.65787647        3.59875442
 C           -0.61124309        0.79636651        3.57152844
 C           -1.49880972       -1.33058161        2.75497673
 C            0.40003164       -2.43874325        1.63595755
 C           -0.97078406       -2.38194516        1.89924138
 C            0.83537249       -2.66760908        0.32653273
 C            2.57621929       -1.03841922        0.66050493
 C            1.99477658       -2.02968332       -0.12894756
 C            2.40715029        1.35867825        0.74959569
 C            2.84557056        0.20998708        0.08985269
 C            1.63620684        2.28680504        0.04233083
 C            0.55024798        2.95912833        2.13577082
 C            0.84419539        3.19721608        0.73539834
 C           -1.35991281        1.49247899        2.62011745
 C           -0.88439961        2.74340903        2.21542415
 C           -2.44631028       -0.57102907        1.96050448
 C           -2.31355584        0.80986402        1.84566794
 C           -1.91827273       -2.55573622        0.81369266
 C           -2.75596419       -1.35988102        0.77390060
 C           -0.04470601       -3.24956894       -0.58650650
 C           -1.47693202       -3.11975900       -0.37143742
 C            0.20070504       -3.13228329       -2.01477547
 C            2.35112200       -2.09531456       -1.47313389
 C            1.39543688       -2.58215194       -2.45425849
 C            3.04463016        0.28379555       -1.28370039
 C            3.02992738       -0.94940764       -2.04854614
 C            1.38072544        2.06006836       -1.31158595
 C            2.27772862        1.27179403       -2.02311995
 C            0.07453077        2.20365923       -1.79298070
 C           -0.38928680        3.65760631        0.12181790
 C           -1.46636074        3.41705187        1.07309554
 C           -0.78773532        3.08600723       -1.15163151
 C           -2.93480282        1.43290506        0.76468725
 C           -2.54581279        2.77095744        0.36609184
 C           -2.18370622        2.72084708       -1.04108734
 C           -3.01095045       -0.71419633       -0.44032141
 C           -3.16753253        0.67156329       -0.45263401
 C           -2.59203723        1.42908859       -1.55488264
 C           -2.06741461       -2.66093467       -1.61097209
 C           -1.03992257       -2.69617741       -2.63732281
 C           -2.69049368       -1.35056922       -1.64002356
 C           -0.45895122        1.23423395       -2.65222466
 C           -1.76200017        0.76229924       -2.44883153
 C           -1.06799157       -1.42693302       -3.34855347
 C           -2.04726205       -0.57723847       -2.69185549
 C            1.35654690       -1.62000107       -3.54425656
 C            2.42861851       -0.66488271       -3.33856160
 C            1.83283142        0.65700706       -3.25946796
 C            0.13080040       -0.87377419       -3.77518722
 C            0.40539901        0.52477351       -3.48171383
