58
Modified xyz file
 C            1.41031770       -0.08153946        3.78712537
 C            2.62169214       -0.25966817        3.00862692
 C            2.56624405       -1.57963004        2.40842603
 C            0.55527258       -1.23788967        3.55479793
 C            1.22525292       -2.10324290        2.60776125
 C           -0.77005729       -0.75102922        3.23114720
 C            0.60422074        1.10748759        3.57691735
 C           -0.78164859        0.67662610        3.49556354
 C            1.06131804        2.10922440        2.72498551
 C            2.93250923        0.69020778        1.95487949
 C            2.22334538        1.88002655        1.87274451
 C            3.06820140       -1.47497223        1.04987811
 C            3.20148127       -0.05924831        0.73716566
 C            2.52242394       -2.31404129        0.09179483
 C            0.52697589       -2.57154237        1.49900569
 C            1.26506161       -2.98296420        0.38981874
 C           -1.41730253       -1.23238333        2.09562770
 C           -0.83057824       -2.26454075        1.34459660
 C           -2.50133034       -0.50741281        1.58307407
 C           -1.70411103        1.46538188        2.82382688
 C           -2.68854623        0.81705487        1.97549623
 C            0.10151022        2.89939460        1.96882325
 C           -1.25749310        2.66573802        2.12978501
 C            1.93319087        2.43880113        0.56610145
 C            0.64546948        3.11305926        0.63315763
 C            2.73938680        0.41967437       -0.49202210
 C            2.26180748        1.73655141       -0.58852118
 C            2.43154157       -1.84509295       -1.27604262
 C            2.55563889       -0.48440439       -1.54910265
 C            0.59536887       -3.24755402       -0.87376633
 C            1.37662358       -2.60960305       -1.92391440
 C           -1.52412555       -2.81732915        0.26993657
 C           -0.79151162       -3.21236624       -0.92214407
 C           -3.16011388       -0.95256880        0.44090958
 C           -2.76240061       -2.20598791       -0.16275424
 C           -3.42732755       -0.00886739       -0.63612188
 C           -3.10363865        1.78690157        0.97868765
 C           -2.14057507        2.87485698        0.99831472
 C           -3.25826193        1.34424890       -0.39620703
 C           -0.18793011        3.10185517       -0.48968257
 C           -1.56921854        2.98380449       -0.33157860
 C           -2.31133419        2.08870788       -1.21049726
 C            1.69157602        2.18145027       -1.77430829
 C            0.36478122        2.77653974       -1.72700426
 C            2.17060242       -0.02625353       -2.80567567
 C            1.76184766        1.35152622       -2.95735628
 C            0.73712137       -2.06710021       -3.03155598
 C            1.25953358       -0.83481070       -3.60032930
 C           -1.46197961       -2.62785515       -2.07539844
 C           -2.68026048       -1.99683095       -1.60002122
 C           -2.87810573       -0.57835453       -1.84992566
 C           -0.71533651       -1.97675153       -3.05060003
 C           -1.63426703        1.46347383       -2.25729063
 C           -0.45285241        2.06256571       -2.69248765
 C            0.44746513        1.35971967       -3.58326755
 C            0.12758073        0.00393417       -3.96146524
 C           -1.91322674        0.12170123       -2.57329570
 C           -1.06182924       -0.60867854       -3.40663865
