58
Modified xyz file
 C            1.48898265       -0.15404855        4.63151974
 C            0.62235632       -1.30042009        4.81169755
 C            1.21482577       -2.40792233        4.08274303
 C            2.51036438       -0.50968043        3.65464490
 C            2.31970015       -1.89043520        3.28857427
 C            2.46464257        0.48260232        2.60271603
 C            0.68890839        0.90754283        4.04880108
 C            1.46223293        1.46392518        2.96857504
 C           -0.65788550       -0.98916616        4.19021600
 C           -0.61739148        0.37967386        3.71453293
 C            0.21664913       -2.89505709        3.15409721
 C           -0.94781883       -2.03067252        3.23097996
 C            2.05230566       -2.20377762        1.89342462
 C            0.85512392       -3.02457657        1.85755948
 C            2.51564521        0.09750036        1.25795919
 C            2.21200888       -1.22749221        0.89934139
 C            2.25772135        1.10267547        0.32447237
 C            0.78441029        2.03557650        1.91233346
 C            1.52912514        2.21305544        0.76631186
 C           -1.12578837        0.66558588        2.44580592
 C           -0.56988574        1.72861050        1.72785801
 C           -1.53597699       -1.68070150        2.02348013
 C           -1.80239627       -0.33316418        1.73948052
 C            0.04746947       -2.89755283        0.74089816
 C           -1.27943631       -2.51898732        0.94857977
 C            1.62669637       -1.47556235       -0.35434131
 C            0.65273379       -2.47909391       -0.43826111
 C            2.20107317        0.76378054       -1.02562963
 C            1.72104586       -0.50660249       -1.36545841
 C            2.13787563        1.80773831       -1.94555062
 C            0.98131244        3.06341443       -0.17011804
 C            1.52788289        3.04365613       -1.50562633
 C           -1.15264587        2.09745021        0.50832913
 C           -0.46432117        3.03160697       -0.27686952
 C           -2.32939677       -0.02602856        0.47813775
 C           -2.05898554        1.22104145       -0.10397285
 C           -2.08943437       -2.37485807       -0.16268813
 C           -2.73764891       -1.08768471       -0.33536290
 C           -0.09027943       -2.62564136       -1.59961022
 C           -1.52831604       -2.74000345       -1.44742874
 C            1.08868810       -0.72397361       -2.60214215
 C            0.16041809       -1.75213461       -2.72549398
 C            1.66948213        1.55473314       -3.28993279
 C            1.10058644        0.26185513       -3.58648964
 C            0.44679898        3.35575201       -2.41812789
 C           -0.80220553        3.21399688       -1.67767901
 C            0.66971056        2.56649780       -3.61385083
 C           -2.52483180        1.49424542       -1.39527202
 C           -1.85396458        2.48915688       -2.21807656
 C           -2.93047002       -0.88792450       -1.76198809
 C           -2.15644308       -1.90760050       -2.45206531
 C           -1.11944255       -1.48956313       -3.37571641
 C           -2.92180142        0.40084898       -2.26875705
 C           -0.10882017        0.49313364       -4.36083327
 C           -0.45888438        1.89683229       -4.22676525
 C           -1.75576883        1.96761295       -3.57501941
 C           -1.29006435       -0.28966693       -4.04988350
 C           -2.31647240        0.62989130       -3.57405852
