58
Modified xyz file
 C            1.51944267       -0.01464705        4.28307527
 C            0.71963940       -1.19674083        4.00594650
 C            1.55011811       -2.10224800        3.25471247
 C            2.65293597       -0.03793024        3.37489351
 C            2.75457829       -1.37832241        2.85668006
 C            2.49101729        1.05203984        2.43477668
 C            0.71061636        1.14233083        3.94810243
 C            1.38549599        1.87925984        2.89608833
 C           -0.52759184       -0.75331229        3.41496522
 C           -0.63081807        0.67244276        3.68387815
 C           -0.93303573       -1.24343852        2.16520047
 C            1.01272121       -2.69649436        2.04808349
 C           -0.22299814       -2.27903015        1.53635865
 C            2.88876034       -1.56070511        1.42453278
 C            2.13658054       -2.76307129        1.13976348
 C            2.63713182        0.83408745        1.06349724
 C            2.74577915       -0.47256424        0.55456661
 C            2.22249441        1.85888514        0.22380436
 C            0.61072069        2.53827985        1.94327530
 C            1.17677393        2.75957333        0.69079699
 C           -1.41118527        1.43119316        2.83482084
 C           -0.78108510        2.50045828        2.06570489
 C           -1.89657209       -0.52699301        1.45032998
 C           -2.27441060        0.73525292        1.90802914
 C           -2.23608621       -0.90691501        0.15027708
 C           -0.51102641       -2.61058586        0.20545226
 C           -1.54584781       -1.94945150       -0.47416157
 C            1.85901888       -3.04040395       -0.17781417
 C            0.47709916       -3.28874462       -0.51910012
 C            2.42001542       -0.74458323       -0.78595246
 C            2.29981283       -2.08108316       -1.16973026
 C            1.97886625        1.58756966       -1.17719517
 C            1.90974923        0.26960607       -1.61114511
 C            0.33652283        3.09136085       -0.44868371
 C            0.98962521        2.54777690       -1.63178760
 C           -1.62515798        2.72166178        0.89739122
 C           -2.69711908        1.73380641        0.95238916
 C           -1.05254150        3.03972329       -0.33332946
 C           -3.10247698       -0.09641763       -0.59529478
 C           -3.26576917        1.30216743       -0.23041252
 C           -3.10051462       -0.16931899       -2.04745830
 C           -1.77029256       -2.20087202       -1.83241234
 C           -2.35528061       -1.16410164       -2.66210903
 C            0.45995342       -3.27384600       -1.96526455
 C            1.57134375       -2.42028342       -2.37412146
 C           -0.72631850       -2.80196088       -2.63337512
 C            1.18581855       -0.03334802       -2.77734223
 C           -1.35644458       -0.80393662       -3.66727610
 C            1.01947084       -1.35644604       -3.17776081
 C           -0.30175153       -1.79552833       -3.58952237
 C            0.22826894        2.24773158       -2.74757832
 C            0.34187740        0.92710103       -3.34276072
 C           -0.98154402        0.52667751       -3.80443260
 C           -1.82718185        2.90305139       -1.48475663
 C           -3.03218436        2.09301227       -1.42196396
 C           -3.03172512        1.19089575       -2.55911025
 C           -1.17477904        2.61774446       -2.75125984
 C           -1.92051009        1.55963463       -3.41428098
