58
Modified xyz file
 C            1.42355801        0.03330588        4.25710223
 C            0.62888400       -1.16687026        4.06190906
 C            1.42711809       -2.10622198        3.31370000
 C            2.61612645       -0.08946624        3.43501507
 C            2.65323649       -1.43128740        2.90823680
 C            2.61788512        1.01151334        2.49560083
 C            0.65419508        1.16186956        3.75739638
 C            1.44481532        1.83147999        2.75947243
 C           -0.64786246       -0.76651561        3.50836148
 C           -0.64443590        0.68255126        3.36198054
 C           -1.24693740       -1.52334812        2.50111173
 C            0.84533582       -2.70382526        2.12868906
 C           -0.49989032       -2.50389762        1.81965222
 C            2.79497053       -1.60290099        1.47500180
 C            1.82422794       -2.60166268        1.05954451
 C            2.98214756        0.80431579        1.16319551
 C            3.02333045       -0.50474254        0.64498926
 C            2.75098233        1.87778148        0.30260641
 C            0.81152942        2.40667252        1.66515129
 C            1.66225876        2.78062389        0.63589880
 C           -1.25589528        1.22481022        2.23437935
 C           -0.51744899        2.04123447        1.35393323
 C           -2.33681731       -0.92941726        1.86891809
 C           -2.34618801        0.51995960        1.74453823
 C           -2.87353502       -1.48479489        0.64227849
 C           -0.91421794       -2.94215920        0.56333132
 C           -2.17197274       -2.48901437       -0.00131286
 C            1.37627115       -2.60243100       -0.25992299
 C            0.06554938       -3.00236607       -0.51326178
 C            2.89038554       -0.71886914       -0.72603537
 C            2.04100382       -1.80698761       -1.19143035
 C            2.73045319        1.68448554       -1.13481267
 C            2.73200891        0.39786748       -1.63948285
 C            1.10818783        3.29333763       -0.58868578
 C            1.81743238        2.66351740       -1.69379449
 C           -1.05822799        2.37094237        0.09129384
 C           -0.30541842        3.11348735       -0.81979045
 C           -2.89917432        0.85174545        0.45309122
 C           -3.41562992       -0.37895868       -0.13032829
 C           -2.24538855        1.77361898       -0.35443331
 C           -3.49749580       -0.48137216       -1.51233619
 C           -2.01723299       -2.44420480       -1.44693658
 C           -0.59853357       -2.60196873       -1.74462656
 C           -2.77292595       -1.54863327       -2.19297038
 C            1.35518875       -1.35713021       -2.39387299
 C            1.76523088        0.01298100       -2.66075738
 C            0.03524431       -1.72648549       -2.62733258
 C            0.81682055        2.23733442       -2.65548116
 C           -0.44165674        2.83929658       -2.23606481
 C            0.82281407        0.92592520       -3.13726062
 C           -2.59830306        1.84030096       -1.70552911
 C           -3.33325059        0.73067930       -2.29358663
 C           -1.62337261        2.28373495       -2.68881835
 C           -2.17859886       -0.98485780       -3.38899954
 C           -0.72975358       -0.94670596       -3.49183463
 C           -0.33365947        0.43348470       -3.73930390
 C           -2.67823538        0.36958777       -3.53768132
 C           -1.53513300        1.24865025       -3.69969522
