58
Modified xyz file
 C            1.59003963        0.03945760        4.22948390
 C            0.78190755       -1.16352555        4.16132931
 C            1.49572637       -2.12560403        3.34359372
 C            2.67153696       -0.10012082        3.26686119
 C            2.63741485       -1.44593368        2.74760472
 C            2.56565979        0.99438567        2.32734991
 C            0.76076894        1.15475164        3.80396401
 C            1.45992206        1.84397313        2.74365162
 C           -0.56332209       -0.77745840        3.77051608
 C           -0.56644563        0.65601311        3.51740893
 C           -1.28280570       -1.60476758        2.91785131
 C            0.77849011       -2.79909925        2.27568402
 C           -0.60253514       -2.67607639        2.19669060
 C            2.55937930       -1.63068986        1.30962869
 C            1.56003774       -2.65217318        1.06024773
 C            2.73760819        0.76996771        0.96121278
 C            2.62019635       -0.53328795        0.44410066
 C            2.43939830        1.84659998        0.13530009
 C            0.71594212        2.45894068        1.74335706
 C            1.39791169        2.76281937        0.56984792
 C           -1.22472638        1.14400382        2.39006172
 C           -0.66235987        2.21475973        1.67429367
 C           -2.23915977       -1.00453870        2.00457040
 C           -2.23974614        0.37128072        1.81293981
 C           -1.23548077       -2.79960945        0.89564959
 C           -2.35339404       -1.87190056        0.84470602
 C            0.91313850       -2.63636100       -0.16818652
 C           -0.45035365       -2.94849785       -0.24044707
 C            2.19190617       -0.72330061       -0.87905204
 C            1.49243625       -1.89656202       -1.19644313
 C            2.27686808        1.64108604       -1.28633240
 C            2.22313692        0.34646983       -1.78249976
 C            0.66579999        3.20455740       -0.60353346
 C            1.32132736        2.62901878       -1.76701667
 C           -1.40050241        2.81167896        0.65362522
 C           -0.71987715        3.26770493       -0.54948362
 C           -2.94738536        0.86752837        0.72675518
 C           -2.64828177        2.19963445        0.24575377
 C           -2.71612101       -1.32099303       -0.38581126
 C           -3.15640575        0.00416899       -0.42895212
 C           -1.09501157       -2.82266523       -1.46600880
 C           -2.23608980       -1.91941434       -1.55295051
 C            1.05140316       -2.12542878       -2.49282480
 C           -0.29152389       -2.63824474       -2.66048336
 C            1.79655448        0.16816092       -3.09681118
 C            1.26041206       -1.11269351       -3.50400768
 C            0.57918579        2.34292129       -2.90502493
 C            0.96899674        1.19570355       -3.70813955
 C           -1.50959888        2.85679371       -1.70231959
 C           -2.68840608        2.17289685       -1.20671211
 C           -2.93234221        0.80311063       -1.62548915
 C           -0.87567398        2.35254039       -2.83212548
 C           -2.06979121       -1.11897702       -2.75709604
 C           -1.00260212       -1.72485513       -3.53674878
 C           -0.01531184       -0.87485554       -4.16726619
 C           -0.24510597        0.55395964       -4.18208686
 C           -2.19253829        0.26757407       -2.67483508
 C           -1.35020699        1.10517224       -3.41535150
