58
Modified xyz file
 C            1.45367660       -0.00804050        4.14613164
 C            0.65614385       -1.19349392        3.88549658
 C            1.50862110       -2.13655785        3.20137927
 C            2.64024205       -0.08747971        3.31000315
 C            2.72213110       -1.43472441        2.80116881
 C            2.58556775        1.00600363        2.36036246
 C            0.68499203        1.14141309        3.70808283
 C            1.47750101        1.87115070        2.74099247
 C           -0.57311522       -0.77418982        3.23220781
 C           -0.61783184        0.67782165        3.28301874
 C           -0.99882449       -1.42060516        2.06568025
 C            0.98675568       -2.79213449        2.02212547
 C           -0.33135717       -2.57614984        1.62964651
 C            2.88032110       -1.62751168        1.37228878
 C            2.01554237       -2.73307307        1.00083565
 C            2.81976135        0.77790560        1.00221900
 C            2.97034581       -0.53329205        0.51357881
 C            2.49349282        1.81326774        0.12700989
 C            0.80479937        2.55396404        1.73305511
 C            1.49320819        2.78218286        0.54573156
 C           -1.22027864        1.34221484        2.22820849
 C           -0.59092220        2.47017890        1.68950063
 C           -1.84789534       -0.72566592        1.18869202
 C           -2.10385568        0.62613606        1.42852002
 C           -2.25883275       -1.31528679       -0.01344285
 C           -0.70044173       -3.14713526        0.42056537
 C           -1.82587577       -2.60458703       -0.30938528
 C            1.61538939       -2.86736462       -0.32562530
 C            0.35150255       -3.41093964       -0.55192246
 C            2.84172337       -0.79029616       -0.84983522
 C            2.17640302       -2.01402667       -1.28096183
 C            2.29231387        1.55197758       -1.28732501
 C            2.46792253        0.27011389       -1.76958779
 C            0.76205927        3.20983864       -0.63403268
 C            1.14491308        2.32750523       -1.72856747
 C           -1.27464929        3.19593242        0.71718191
 C           -0.56828879        3.57756334       -0.49884177
 C           -2.92438130        1.33888168        0.56773226
 C           -2.59596694        2.73343797        0.32813431
 C           -2.88172362       -0.54269279       -1.00575978
 C           -3.31123578        0.74448045       -0.69752656
 C           -2.65964268       -0.83451520       -2.35426316
 C           -1.64764687       -3.00489298       -1.69327767
 C           -0.24358410       -3.33900492       -1.87208857
 C           -2.00989966       -2.07165530       -2.73364379
 C            1.46476096       -1.71403906       -2.51814375
 C            1.50633078       -0.27140014       -2.71417312
 C            0.31249663       -2.41692894       -2.84249929
 C           -0.79639887       -1.70858608       -3.45475354
 C            0.15872563        1.73428483       -2.52077381
 C           -2.09711874        0.19784360       -3.20606679
 C            0.33346147        0.43043350       -3.00044065
 C           -0.75870264       -0.25562686       -3.52883271
 C           -1.45944354        3.34949341       -1.62094768
 C           -2.76435584        3.00418728       -1.08604202
 C           -3.18248574        1.76983230       -1.72198318
 C           -1.09859215        2.33785863       -2.60146837
 C           -2.27775738        1.51599299       -2.82733766
