58
Modified xyz file
 C            1.14685847       -0.07242541        3.92334615
 C            2.36509640       -0.41222724        3.22387790
 C            2.24127738       -1.79185395        2.77896495
 C            0.30049834       -1.25620306        3.91759848
 C            0.84184484       -2.15061365        2.91620890
 C           -1.06319450       -0.80640925        3.77523973
 C            0.33922315        1.01874647        3.41807506
 C           -1.03279160        0.64655959        3.67946828
 C            0.64197815        1.59351311        2.18447942
 C            2.73835307        0.36705861        2.06274363
 C            1.88003625        1.35006993        1.56697224
 C            2.85442750       -1.88424437        1.46540240
 C            3.35105484       -0.55709335        1.12896535
 C            2.20749072       -2.63059051        0.48942740
 C            0.10859026       -2.44515667        1.76326936
 C            0.79748994       -2.95772241        0.66792182
 C           -1.83122494       -1.27583715        2.64111744
 C           -1.18798349       -1.93307631        1.58887400
 C           -2.04010308        1.02517731        2.70892186
 C           -2.74127060       -0.19376991        2.33184458
 C           -0.36825636        2.25826767        1.47907694
 C           -1.71568168        1.94004505        1.70915931
 C           -0.01791574        3.03673421        0.37906955
 C            2.11730610        1.84780535        0.28396834
 C            1.28889293        2.84370821       -0.22178012
 C            3.43996671       -0.17754901       -0.20289690
 C            2.94066709        1.13203484       -0.58998884
 C            2.41041556       -2.29983214       -0.91068017
 C            3.05460311       -1.11426324       -1.24936613
 C            0.17366075       -2.95881982       -0.63942393
 C            1.21208323       -2.69855858       -1.62819750
 C           -1.76927044       -1.88936061        0.31145898
 C           -1.08698761       -2.39533794       -0.80006916
 C           -3.39807065       -0.21901951        1.11391959
 C           -2.96601458       -1.19000443        0.12145419
 C           -2.64722943        2.11874346        0.68855065
 C           -3.58521751        1.04276747        0.41972303
 C           -0.97788932        3.24517643       -0.69386848
 C           -2.23048810        2.66505908       -0.58962143
 C            1.14454926        2.98623429       -1.66101301
 C           -0.26949509        3.13671261       -1.95474296
 C            2.61502058        1.06800946       -2.00683084
 C            2.58671992       -0.33640687       -2.38830295
 C            1.67477251        1.94783617       -2.52615932
 C            0.87445019       -2.05761051       -2.81330414
 C            1.54895700       -0.81977117       -3.17948833
 C           -1.51566419       -2.06632279       -2.08609998
 C           -0.53053323       -1.91085763       -3.14298720
 C           -3.27506261       -0.63645749       -1.18736437
 C           -3.56001285        0.77425212       -1.00693520
 C           -2.68057704        1.74822886       -1.63038566
 C           -2.49870433       -1.01604747       -2.26856659
 C           -0.64886206        2.08365696       -2.88055411
 C            0.57626330        1.43834735       -3.33427378
 C            0.55049701        0.09953720       -3.70623329
 C           -0.72217841       -0.59562847       -3.73466695
 C           -1.78821608        1.32222852       -2.61476604
 C           -1.87414907        0.01256057       -3.09053214
