58
Modified xyz file
 C            1.50260842        0.00282158        3.98078699
 C            0.69542803       -1.18936827        3.79446590
 C            1.36486373       -2.04256012        2.83033760
 C            2.61339893       -0.06232138        3.04831266
 C            2.52951459       -1.32281506        2.33282410
 C            2.62507598        1.16725497        2.28317887
 C            0.68838600        1.14634445        3.61136672
 C            1.40746119        1.90072111        2.59944318
 C           -0.66259012       -0.77140937        3.51478966
 C           -0.64208087        0.66529130        3.28711128
 C           -1.42832933       -1.56597445        2.67835157
 C            0.60021537       -2.77632734        1.92703015
 C           -0.79627274       -2.67272146        1.96883101
 C            1.22518128       -3.21544446        0.76355074
 C            2.80851879       -1.35680897        0.96660127
 C            2.32412564       -2.43039144        0.22333930
 C            3.04159624        1.11280919        0.96200226
 C            3.18178018       -0.18284645        0.30553790
 C            2.45081391        2.02965346        0.00289807
 C            0.67875941        2.47367967        1.55978092
 C            1.33889979        2.78156774        0.36557299
 C           -1.27013781        1.19267009        2.16191872
 C           -0.71231025        2.31536997        1.55390192
 C           -2.34504307       -0.92931157        1.75046994
 C           -2.19843906        0.42442190        1.45216975
 C           -1.59687900       -2.92908411        0.77625328
 C           -2.59418389       -1.87262876        0.67596907
 C            0.43068159       -3.69972514       -0.35039320
 C           -0.99122192       -3.42336787       -0.37217962
 C            2.09536982       -2.27766060       -1.20511443
 C            1.01103531       -3.17115345       -1.57419293
 C            2.84435130       -0.00439369       -1.10086903
 C            2.46105324        1.38575861       -1.29934097
 C            2.16817533       -1.01157216       -1.77851932
 C            1.46165106        1.70997134       -2.21322446
 C            0.62962831        3.41345746       -0.64992053
 C            0.72387350        2.87501399       -2.00099407
 C           -1.46443333        2.98998926        0.60360880
 C           -0.75880049        3.74668541       -0.40904344
 C           -2.74602347        0.92980723        0.26848420
 C           -2.54488244        2.27181166       -0.05032476
 C           -2.96482388       -1.38410787       -0.56846993
 C           -3.15141447        0.04787020       -0.73758090
 C           -1.31186697       -2.84481006       -1.66853969
 C           -0.06604589       -2.66075490       -2.39935697
 C           -2.32045294       -1.89225642       -1.77133460
 C            1.31949421       -0.67592017       -2.83304355
 C            0.96248020        0.71768593       -3.05991534
 C            0.14330406       -1.48960666       -3.11545008
 C           -2.87200222        0.36079860       -2.13202922
 C           -2.17587102       -0.78162218       -2.70147513
 C           -0.42819227        0.75267629       -3.50040449
 C           -0.96996789       -0.58965670       -3.36662525
 C           -0.57602681        3.02441477       -2.63195283
 C           -1.48035010        3.61466635       -1.66142444
 C           -2.56597079        2.67596758       -1.44686717
 C           -1.21971345        1.84900666       -3.18391696
 C           -2.47339893        1.64843429       -2.46638554
