58
Modified xyz file
 C            1.41445930       -0.00192903        3.91988945
 C            0.58729550       -1.18019649        3.76342977
 C            1.12557603       -1.97480675        2.67012478
 C            2.44359953       -0.05320617        2.89864477
 C            2.19858245       -1.20912271        2.06242282
 C            2.47302687        1.24083737        2.25701545
 C            0.57865681        1.15395323        3.63835701
 C            1.27625276        1.96509380        2.66656993
 C           -0.78975142       -0.73518189        3.66062939
 C           -0.74040958        0.67214247        3.29286416
 C           -1.66498728       -1.55983509        2.97655638
 C            0.21941324       -2.63418631        1.84829061
 C           -1.10425999       -2.70731208        2.28961421
 C            0.49044732       -2.73688461        0.47787353
 C            2.20519864       -1.03054482        0.68450959
 C            1.41949445       -1.86441027       -0.12128418
 C            2.82088872        1.31103077        0.91478742
 C            2.76902052        0.13368275        0.14745899
 C            2.54628882        2.52571643        0.29692198
 C            0.54682161        2.61500479        1.67285604
 C            1.29908650        3.18092357        0.64537182
 C           -1.30144446        1.08416934        2.08411498
 C           -0.76593952        2.18976957        1.40623274
 C           -2.57455539       -0.96039657        2.01979918
 C           -2.22899139        0.25667412        1.44071809
 C           -2.13838194       -3.17257487        1.38913599
 C           -3.03155015       -2.04153090        1.16316081
 C           -0.36171837       -3.50678613       -0.31638117
 C           -1.74116982       -3.68370910        0.09713784
 C           -0.39940886       -3.28124931       -1.74316623
 C            1.50654726       -1.76049861       -1.52008371
 C            0.50229972       -2.30485404       -2.30926986
 C            2.96801805        0.19462200       -1.22839996
 C            2.21772670       -0.70512975       -2.08135286
 C            2.75850658        2.67482513       -1.12518110
 C            3.01936916        1.48360047       -1.89982289
 C            0.66224232        3.60579456       -0.58678835
 C            1.58472557        3.32994091       -1.68097089
 C           -1.42759087        2.65624447        0.26979036
 C           -0.69212797        3.37152247       -0.76171794
 C           -2.56461261        0.50172571        0.10894939
 C           -2.38425585        1.78357054       -0.39050810
 C           -3.09589295       -1.81976433       -0.26938946
 C           -2.56602667       -3.01747650       -0.89493922
 C           -1.75558625       -2.87079304       -2.08360138
 C           -2.73911297       -0.57091843       -0.77817852
 C           -0.28624394       -1.40257448       -3.13253503
 C           -1.65876105       -1.56077510       -2.69479840
 C           -2.28695939       -0.47087406       -2.10367529
 C            1.55793034        0.10014576       -3.10065074
 C            2.06942690        1.45290072       -3.00059644
 C            1.13435735        2.54641463       -2.82087665
 C            0.20362263       -0.11667013       -3.34949109
 C           -1.16632537        2.90642124       -2.05419474
 C           -2.23700187        1.95465152       -1.81982152
 C           -1.97956444        0.77897310       -2.62392509
 C           -0.22353856        2.30580438       -2.98487483
 C           -0.69271269        0.95803574       -3.28675182
