58
Modified xyz file
 C            1.62619233        0.05447940        4.11873400
 C            0.80897396       -1.14517957        4.15211036
 C            1.50075148       -2.17032134        3.39529639
 C            2.70142557       -0.16668573        3.16428514
 C            2.68226893       -1.56212533        2.79953458
 C            2.57419921        0.82184587        2.10737110
 C            0.80132142        1.13451489        3.60935839
 C            1.47487053        1.70036834        2.46482283
 C           -0.53962106       -0.77923233        3.75746267
 C           -0.54379940        0.63580958        3.41625103
 C           -1.27189803       -1.65339408        2.96543705
 C            0.78131021       -2.87351851        2.34386202
 C           -0.59066836       -2.71423938        2.22576888
 C            2.68171133       -1.89226310        1.39230704
 C            1.59735390       -2.82689929        1.14533285
 C            2.70761349        0.44459233        0.76349621
 C            2.92197242       -0.90615983        0.43709311
 C            2.20410134        1.32304569       -0.21202329
 C            0.70648386        2.19341313        1.42781459
 C            1.33004342        2.33767117        0.20374314
 C           -1.25258431        1.05703729        2.29076636
 C           -0.68174051        2.01315461        1.43677274
 C           -2.28599254       -1.10537482        2.08494944
 C           -2.30374544        0.26549873        1.82707348
 C           -1.19114407       -2.78163845        0.90429778
 C           -2.43200051       -2.03558847        0.97790862
 C            1.00622631       -2.80850834       -0.11774502
 C           -0.38895642       -2.66632696       -0.23277400
 C            2.76976895       -1.30734887       -0.88355857
 C            1.82210745       -2.37798255       -1.15812632
 C            2.30957133        0.99368316       -1.57182278
 C            2.61398437       -0.31435913       -1.92376064
 C            1.72526087        1.81611919       -2.53790076
 C            0.69368732        3.14172289       -0.72317390
 C            1.05892053        3.02700631       -2.11419710
 C           -1.41548396        2.48974245        0.34116324
 C           -0.75295207        3.24318589       -0.63391444
 C           -3.07736537        0.72477596        0.76859990
 C           -2.63832276        1.89235840        0.02368395
 C           -3.00586758       -1.57617626       -0.19399754
 C           -3.58342845       -0.24489968       -0.18900574
 C           -0.97261698       -2.23290204       -1.43714712
 C           -2.27200491       -1.72693500       -1.44060308
 C            1.24872087       -2.14232975       -2.46077651
 C            1.86331865       -0.94078381       -2.99771461
 C           -0.18324410       -1.98946800       -2.55690358
 C            0.91599884        1.21424198       -3.59360607
 C            0.82920036       -0.16692264       -3.65475818
 C           -0.45055220       -0.80948591       -3.36813547
 C           -0.14797010        3.18286168       -2.90626189
 C           -1.27193232        3.26025661       -1.98936612
 C           -0.30884378        1.97826401       -3.69985908
 C           -3.01770623        1.69303172       -1.37355992
 C           -3.42935657        0.31318354       -1.51840071
 C           -2.58275530       -0.58154102       -2.28601977
 C           -1.58406883       -0.03836927       -3.09362079
 C           -2.22533035        2.24052996       -2.36894826
 C           -1.55540672        1.34456466       -3.30761565
