58
Modified xyz file
 C            1.26318830       -0.06472239        3.74446692
 C            2.49495855       -0.39609065        3.06842167
 C            2.38432665       -1.76141714        2.57372098
 C            0.41351804       -1.24713440        3.73032013
 C            1.04937329       -2.23955932        2.88543811
 C           -0.93423957       -0.80341230        3.41496873
 C            0.46890401        1.03733411        3.23785052
 C           -0.91207282        0.65294389        3.44287104
 C            0.82725487        1.65990079        2.03968343
 C            2.91545358        0.42641516        1.95295423
 C            2.11853093        1.48932706        1.51966309
 C            2.83579527       -1.75970386        1.18923927
 C            3.47649890       -0.47809934        0.96510711
 C            2.01358802       -2.28864328        0.19655369
 C            0.30567408       -2.85405951        1.88899662
 C            0.88197325       -3.01959908        0.56327168
 C           -1.67221745       -1.45779483        2.42576690
 C           -1.10175440       -2.51569866        1.71623802
 C           -2.78515303       -0.81383712        1.88869097
 C           -1.89532103        1.34430523        2.75896495
 C           -3.00437290        0.58385917        2.21696829
 C           -0.16613050        2.29923949        1.28220399
 C           -1.48770539        2.29481281        1.73629359
 C            0.12083674        2.79849112        0.00720750
 C            2.45144340        2.08934252        0.31077722
 C            1.41535124        2.71276102       -0.48844521
 C            3.61932056       -0.02210018       -0.33448013
 C            3.34020619        1.37865938       -0.59575128
 C            2.16100788       -1.85261973       -1.12466076
 C            3.02124479       -0.78938115       -1.41606934
 C            1.26354897       -2.28877399       -2.09862348
 C           -0.22363977       -3.15510236       -0.36817262
 C           -1.42282324       -2.68536070        0.30586561
 C           -0.02528803       -2.82432619       -1.69566899
 C           -3.10298934       -0.99106068        0.47768521
 C           -2.25975782       -1.76285360       -0.31864203
 C           -3.46437688        1.26265341        1.02010263
 C           -2.57696558        2.38924373        0.77921981
 C           -3.63556067        0.26531290       -0.02359035
 C           -0.91114148        2.99468144       -0.91008185
 C           -2.29062782        2.73803285       -0.53134559
 C           -0.72772401        2.54010518       -2.28090783
 C            1.60930699        2.31111425       -1.87522942
 C            2.79772560        1.48399642       -1.93862466
 C            2.68426896        0.14680254       -2.48194893
 C            0.49342719        1.97317189       -2.63724203
 C            1.04162037       -1.46890077       -3.27704302
 C            1.61561773       -0.13771080       -3.31866079
 C            0.51692187        0.81740269       -3.43208189
 C           -1.04931221       -2.06510216       -2.39037500
 C           -2.04962096       -1.42276559       -1.66084001
 C           -0.39379345       -1.34832371       -3.47032937
 C           -0.70681343        0.05446920       -3.66225538
 C           -3.38425733        0.63032377       -1.33700185
 C           -2.90694129        1.97747352       -1.60733707
 C           -1.96040266        1.90541360       -2.70643645
 C           -2.64198935       -0.27634252       -2.19583690
 C           -1.90789383        0.53290688       -3.16182966
