58
Modified xyz file
 C            1.42768464       -0.19253294        4.43891741
 C            0.57084502       -1.36561818        4.43741050
 C            1.11796309       -2.32104354        3.49080718
 C            2.52517067       -0.44620068        3.52654566
 C            2.30568253       -1.73587281        2.89237423
 C            2.65685519        0.71769052        2.67420904
 C            0.66848933        0.92204433        3.89496591
 C            1.42920202        1.49230609        2.79848186
 C           -0.72745667       -0.96244364        3.93362292
 C           -0.67314498        0.45644110        3.61978137
 C            0.04050551       -2.74573117        2.61579122
 C           -1.10229249       -1.87970764        2.86511671
 C            0.35373167       -3.06500553        1.30583041
 C            2.48915264       -1.83992640        1.51302144
 C            1.66102755       -2.69159926        0.78011052
 C            3.17325188        0.52524668        1.40755090
 C            3.18169271       -0.82454207        0.85301654
 C            2.71803934        1.39539173        0.34657309
 C            0.74931885        1.88304365        1.64028672
 C            1.45490548        1.97950586        0.43975771
 C           -1.28652619        0.86480643        2.44506983
 C           -0.64447829        1.78103558        1.60269201
 C           -1.81191272       -1.35423457        1.78465323
 C           -2.18779161       -0.01639266        1.86736897
 C           -0.62320675       -2.79863684        0.26446108
 C           -1.67876757       -1.92974629        0.51277436
 C            1.51226261       -2.51174302       -0.65618877
 C            0.10141172       -2.67404287       -0.98124830
 C            3.08749821       -0.69205619       -0.59584018
 C            3.09665679        0.73810871       -0.88474258
 C            2.25180507       -1.54055846       -1.32537906
 C            2.52638299        1.18753133       -2.05984897
 C            0.77351365        2.29719163       -0.73677913
 C            1.42554200        2.13189428       -1.96306683
 C           -1.33405221        2.19146182        0.45610686
 C           -0.61063144        2.49259814       -0.70936871
 C           -3.01621847        0.49088477        0.88907201
 C           -2.66830686        1.78853459        0.35497486
 C           -2.31761511       -1.31498788       -0.57058526
 C           -3.26430159       -0.33770551       -0.26636407
 C           -0.44038337       -1.90690689       -2.00336450
 C           -1.70373272       -1.32781903       -1.83914066
 C            1.81434092       -1.13657456       -2.58547663
 C            2.14749537        0.19882371       -3.04665533
 C            0.43164964       -1.39462257       -2.96162745
 C            0.65134538        2.00365801       -3.18507145
 C            1.00795594        0.72252379       -3.77765713
 C           -0.00100771       -0.32320056       -3.84490724
 C           -1.28062460        2.77210271       -1.90690393
 C           -0.68485932        2.36732759       -3.17011913
 C           -3.38087945        1.90654416       -0.89999328
 C           -3.76202002        0.55365312       -1.29462317
 C           -2.70583243        2.51802829       -2.01726574
 C           -2.23754608       -0.58165097       -2.89492274
 C           -1.33525475        0.05484673       -3.84122650
 C           -1.63405854        1.47703490       -3.81676174
 C           -3.32248579        0.35118988       -2.65242136
 C           -2.91599066        1.64965259       -3.16379468
