58
Modified xyz file
 C            1.13132641        0.33518157        4.08412980
 C            2.34242473        0.09366314        3.33032348
 C            2.35456442       -1.31747777        2.99977469
 C            0.29040447       -0.85033082        3.94795456
 C            0.98477158       -1.78450387        3.09383269
 C           -1.02695396       -0.40995484        3.55896187
 C            0.32392272        1.48249941        3.72900827
 C           -1.05368779        1.03426280        3.70196173
 C            0.57264140        2.15465059        2.46497191
 C            2.55524947        0.81674265        2.08761857
 C            1.57900134        1.69342690        1.61105045
 C            3.02405423       -1.45778796        1.72494031
 C            3.17503982       -0.11676856        1.16413733
 C            2.58278121       -2.46738517        0.88592891
 C            0.36716963       -2.26151621        1.93707196
 C            1.18419731       -2.87563558        0.98660618
 C           -1.64215978       -0.96437618        2.44051385
 C           -0.89344476       -1.76560695        1.55286549
 C           -2.76767875       -0.29291644        1.97274064
 C           -1.74277657        1.79942636        2.67965424
 C           -0.72576593        2.50081654        1.90741626
 C           -2.76106444        1.16348655        1.98821499
 C           -0.85514897        2.57534683        0.52464127
 C            1.43468490        1.86996363        0.23256664
 C            0.30175479        2.53322436       -0.25289725
 C            2.99315123        0.07028407       -0.20427629
 C            2.28763596        1.18984266       -0.64934268
 C            2.90327754       -2.35398009       -0.52033753
 C            3.13163891       -1.02752176       -1.05612948
 C            0.68908892       -3.09318646       -0.35736084
 C            1.80904506       -2.93775568       -1.27063101
 C           -1.38686915       -2.04337123        0.26134653
 C           -0.54358368       -2.57135812       -0.71864654
 C           -3.39059788       -0.71713286        0.74205627
 C           -2.65354417       -1.60508169       -0.12280812
 C           -3.05246743        1.59388903        0.63604775
 C           -2.09731265        2.32022258       -0.07031945
 C           -3.70661175        0.47890568       -0.02353698
 C           -2.20484772        2.36302785       -1.45913339
 C            0.22225773        2.88548108       -1.59379725
 C           -1.07378629        2.83185164       -2.23829549
 C            2.16564258        1.39092072       -2.02195664
 C            1.19116490        2.34093824       -2.52053267
 C            2.52473006       -0.99436923       -2.37708057
 C            1.62386611       -2.13763122       -2.46981516
 C            2.13243598        0.23178630       -2.89601287
 C           -0.78425391       -2.29282250       -2.06580201
 C            0.32954694       -1.94960609       -2.93679553
 C           -2.86161327       -1.14269846       -1.48523066
 C           -3.38716521        0.21365201       -1.41501375
 C           -2.78169944        1.22140145       -2.15802583
 C           -1.91480817       -1.46488492       -2.44685806
 C           -0.95163832        1.97606025       -3.40779187
 C            0.45903127        1.69978508       -3.60353989
 C            0.91074149        0.32191612       -3.67848478
 C           -0.01563851       -0.71620583       -3.62580460
 C           -1.87813120        0.86994446       -3.24052077
 C           -1.42399341       -0.44073405       -3.35955869
