58
Modified xyz file
 C            1.15931700       -0.09504612        4.14658876
 C            2.37441421       -0.33509073        3.39292196
 C            2.20042719       -1.58728341        2.66742651
 C            0.31306258       -1.26397631        3.97551400
 C            0.82624477       -2.00347811        2.83666276
 C           -1.05604047       -0.80264588        3.93415030
 C            0.35154238        1.07427844        3.84117263
 C           -1.03640944        0.65329576        3.85947733
 C            0.77172032        1.96969920        2.86330061
 C            2.82418306        0.65897424        2.43494632
 C            2.07946562        1.81950464        2.23913585
 C            2.69774156       -1.38415976        1.32552416
 C            3.31726651       -0.07269175        1.28196736
 C            1.93010958       -1.78591037        0.23807689
 C            0.02011642       -2.16614946        1.70862458
 C            0.60157067       -2.20168199        0.42906604
 C           -1.90384482       -1.26309534        2.85403497
 C           -1.37010710       -2.06546206        1.84431625
 C           -1.91228816        1.03813057        2.76224476
 C           -2.72290496       -0.12897440        2.47096132
 C           -0.16340627        2.41022856        1.83551909
 C           -1.40150699        1.78670482        1.70161277
 C            1.99643272        2.39979408        0.90781502
 C            0.60426538        2.73298088        0.64613733
 C            3.39580233        0.56569587        0.05293651
 C            2.76199305        1.86750729       -0.12013157
 C            2.34314638       -1.37366923       -1.02697057
 C            3.09919659       -0.20656955       -1.14272612
 C            1.67231635       -1.85494851       -2.14077117
 C           -0.18730210       -2.52686311       -0.68244680
 C            0.33857962       -2.39548376       -1.96629756
 C           -2.17918018       -2.31529081        0.74279505
 C           -1.57147146       -2.56001601       -0.55166453
 C           -3.37781808       -0.19120916        1.25337466
 C           -3.32984914       -1.45119876        0.53327833
 C           -1.97152700        1.65026080        0.43232142
 C           -3.10534884        0.84812758        0.27632984
 C            0.06149721        2.46884873       -0.60792262
 C           -1.28647535        2.10245665       -0.70197291
 C            2.24337882        1.91722784       -1.47738966
 C            2.76637854        0.75575496       -2.17643139
 C            0.92178326        2.29750117       -1.70078591
 C            1.68544002       -1.07570607       -3.37050423
 C            2.11033262        0.31316342       -3.31664861
 C           -0.50409774       -1.84006759       -3.01526811
 C            0.35024448       -1.11832187       -3.94310790
 C           -2.39317872       -1.91409010       -1.56824952
 C           -3.41992514       -1.15135236       -0.88341779
 C           -3.41881466        0.29088271       -1.02991094
 C           -1.76521700       -1.35057583       -2.67534473
 C           -1.86907900        1.92462712       -1.95443479
 C           -2.79788824        0.82683900       -2.14402973
 C           -2.16717842       -0.07512201       -3.09574940
 C            0.39656017        2.10320651       -2.97477093
 C            1.02676920        1.12430757       -3.84720116
 C           -0.00932140        0.22794775       -4.33388602
 C           -1.03515893        1.97278707       -3.13949706
 C           -1.28595900        0.75539718       -3.90070167
