58
Modified xyz file
 C            1.35658404       -0.08489224        3.51790682
 C            2.41346347       -0.27673486        2.53964527
 C            2.34242171       -1.66330163        2.09947493
 C            0.50594732       -1.26503315        3.48476510
 C            1.02670451       -2.15554265        2.46030730
 C           -0.87388257       -0.82349897        3.39739487
 C            0.50603676        1.08462009        3.41699079
 C           -0.87734594        0.63207195        3.41549184
 C            0.89247271        2.12577073        2.58326743
 C            2.69398210        0.72965665        1.61315933
 C            2.03008235        1.95331066        1.68836980
 C            3.36707170        0.40344202        0.43959931
 C            2.86964549       -2.00634711        0.86549340
 C            3.59461721       -0.99492126        0.11993265
 C            2.03745406       -2.73535549       -0.07847680
 C            0.17237997       -2.62494225        1.46416413
 C            0.68967586       -2.96906095        0.20989852
 C           -1.74023351       -1.50508493        2.55196619
 C           -1.20744801       -2.51115166        1.64423853
 C           -2.78406234       -0.77972969        1.84491620
 C           -1.83441162        1.33253637        2.68767020
 C           -2.82696870        0.60923505        1.90695967
 C           -0.11577767        2.90423807        1.88205982
 C           -1.45113809        2.51873131        1.93661884
 C            1.75505473        2.69523078        0.46610979
 C            0.46010134        3.34688189        0.62226684
 C            3.02478148        1.09100007       -0.79672481
 C            2.13742231        2.16230974       -0.76663436
 C            3.31178643       -1.18629796       -1.29250234
 C            2.42842396       -2.32580296       -1.42185526
 C            2.88973169        0.08807970       -1.84357300
 C            1.46981978       -2.30661874       -2.42295667
 C           -0.17633133       -3.29884150       -0.83276645
 C            0.22970535       -3.02452984       -2.19934152
 C           -2.09934717       -2.58539433        0.50024600
 C           -3.01829307       -1.45918708        0.57944413
 C           -1.58909250       -2.97831242       -0.72800732
 C           -3.31077094       -0.72071279       -0.56233565
 C           -3.10527224        1.38278421        0.70627718
 C           -2.27269823        2.57580533        0.73686522
 C           -3.34369872        0.73266039       -0.50012440
 C           -0.35719824        3.53054546       -0.48519377
 C           -1.74194780        3.08341606       -0.44489008
 C            1.38036391        2.42835784       -1.90512531
 C            0.17029785        3.22458194       -1.79988132
 C            1.78933012        0.13966363       -2.69806786
 C            1.14103292       -1.04157471       -3.07324637
 C            1.12482717        1.35423944       -2.85312542
 C           -0.84229398       -2.28392009       -2.84162948
 C           -1.97488291       -2.26354981       -1.93682225
 C           -2.72811145       -1.10110430       -1.83968312
 C           -0.29569448       -1.02332571       -3.31028668
 C           -2.76127376        1.24712063       -1.73020579
 C           -2.04212162        2.43521885       -1.71315022
 C           -0.87286159        2.55623189       -2.56104080
 C           -0.29987938        1.35709565       -3.14644701
 C           -2.26697997        0.11301924       -2.50121481
 C           -1.00120049        0.15691344       -3.09619124
