58
Modified xyz file
 C            1.55686713       -0.02475033        3.90966493
 C            0.76603986       -1.22640702        3.71664576
 C            1.41563980       -2.03134197        2.69422427
 C            2.64768827       -0.05975383        2.95302563
 C            2.67700606       -1.38455759        2.36463966
 C            2.51457245        1.08361779        2.06364060
 C            0.71621787        1.10908067        3.57663599
 C            1.34763994        1.83542852        2.49089243
 C           -0.61305010       -0.82307633        3.51013571
 C           -0.63816085        0.62624906        3.37389916
 C           -1.39449807       -1.58424807        2.65622230
 C            0.63656511       -2.58585446        1.67632278
 C           -0.75282149       -2.58713495        1.81845467
 C            1.21271338       -2.85143721        0.42766036
 C            3.15853552       -1.50021221        1.07326073
 C            2.52176633       -2.44291138        0.17496445
 C            2.74530357        0.89640365        0.69868594
 C            3.37693074       -0.28405163        0.30338108
 C            2.00811277        1.64896143       -0.23406763
 C            0.53206543        2.38493247        1.51776525
 C            1.05067052        2.55888405        0.24071184
 C           -1.39048066        1.20303467        2.35220310
 C           -0.85114386        2.30101525        1.67465205
 C           -2.40079428       -0.92344405        1.84402425
 C           -2.41803282        0.46420413        1.75410472
 C           -1.60292455       -2.79044435        0.65966331
 C           -2.58232807       -1.70940299        0.63272042
 C            0.41298692       -3.26734338       -0.64084265
 C           -1.03536108       -3.23251759       -0.52256675
 C            0.75810259       -2.87437583       -2.00235635
 C            2.89052450       -2.03733347       -1.16928998
 C            3.37125123       -0.66582027       -1.09064161
 C            1.89045641       -2.10526870       -2.21750167
 C            2.07259168        1.34335433       -1.60756436
 C            2.59972754        0.12666049       -2.01623626
 C            1.75131443       -0.76971093       -2.78651482
 C            1.17363093        1.93589731       -2.48419742
 C            0.34439618        3.36857923       -0.64272357
 C            0.41693611        3.09029104       -2.05755051
 C           -1.66009951        3.02545782        0.80766121
 C           -1.04123712        3.68181325       -0.33271207
 C           -3.14148440        1.03147830        0.71046969
 C           -2.88914092        2.41364212        0.34747895
 C           -2.88917751       -1.05737094       -0.56454903
 C           -3.30663978        0.27110639       -0.52082604
 C           -1.57555640       -2.74975952       -1.77787683
 C           -0.46520322       -2.50685811       -2.68391492
 C           -2.41564176       -1.56539960       -1.77266652
 C            0.50538697       -0.30564939       -3.22172171
 C            0.28474284        1.07070752       -3.24598022
 C           -0.59899331       -1.15810939       -3.20674265
 C           -1.89197577       -0.64739598       -2.77372644
 C           -0.94235380        2.93459231       -2.55123149
 C           -1.84208069        3.38422131       -1.51080708
 C           -2.91913897        2.50781324       -1.10302336
 C           -2.97332689        1.15348303       -1.62837722
 C           -1.06532429        1.57970799       -3.06565204
 C           -2.05941293        0.72132410       -2.59195002
