58
Modified xyz file
 C            1.54301061        0.13562599        4.20944081
 C            0.74550125       -1.06081640        4.01509779
 C            1.55656424       -1.99592624        3.27020577
 C            2.66077982        0.07059225        3.28066856
 C            2.70273892       -1.26883841        2.74245366
 C            2.52878773        1.18298765        2.36005637
 C            0.72883047        1.27403362        3.82837563
 C            1.49677884        2.06097720        2.88506666
 C           -0.53688997       -0.66581245        3.45470320
 C           -0.57266450        0.78613458        3.40375960
 C           -1.07010266       -1.38259265        2.38506745
 C            0.94035828       -2.68519005        2.15766661
 C           -0.42437078       -2.54746311        1.93436361
 C            2.69639240       -1.44067970        1.30166585
 C            1.82146873       -2.55603430        1.01112493
 C            2.58479408        0.96850933        0.98101330
 C            2.64558531       -0.33603562        0.45988054
 C            2.19703367        2.01583157        0.14238747
 C            0.79133328        2.83750643        1.98133688
 C            1.31272276        2.97820713        0.63403642
 C           -1.18431650        1.40599568        2.31631550
 C           -0.63796691        2.60076715        1.83797665
 C           -2.00179548       -0.74342606        1.56019703
 C           -2.01867251        0.65477095        1.48407933
 C           -2.72128180       -1.49994857        0.63911348
 C           -0.90452398       -3.17421669        0.79164126
 C           -2.20694810       -2.80269459        0.28217805
 C            1.24572907       -2.64624740       -0.25400039
 C            0.00205257       -3.27472559       -0.34263068
 C            2.30886969       -0.55356479       -0.87547249
 C            1.60384120       -1.71279367       -1.23470614
 C            2.32607350        1.85776472       -1.23360109
 C            2.41315811        0.51097720       -1.76425383
 C            1.46618408        2.62823956       -2.11689800
 C            0.20134967        3.42431817       -0.19260987
 C           -1.02363483        3.10230761        0.52703407
 C            0.27001798        3.23831031       -1.56684200
 C           -2.65547497        1.28688032        0.41565439
 C           -2.07839763        2.49766024       -0.14076125
 C           -3.22201743       -0.87813940       -0.57532997
 C           -3.18322963        0.50300084       -0.68765312
 C           -2.15994733       -2.88637744       -1.16804192
 C           -0.78527657       -3.16365714       -1.55829068
 C           -2.82851822       -1.71133500       -1.70312275
 C            1.02605290       -1.81362172       -2.50114154
 C           -0.24720576       -2.50098632       -2.65221569
 C            1.70872680        0.47831573       -3.03437751
 C            1.07079594        1.77194324       -3.22060134
 C            1.01878002       -0.66807761       -3.39609949
 C           -0.87635106        2.69738427       -2.28354092
 C           -2.02781002        2.34381829       -1.58676415
 C           -2.73759374        1.12078191       -1.92810841
 C           -0.37657878        1.83805890       -3.34710313
 C           -2.33199279       -1.12308679       -2.86157512
 C           -1.11479137       -1.65430543       -3.45459403
 C           -0.32441317       -0.53742891       -3.93952483
 C           -2.28896629        0.32690219       -2.97847242
 C           -1.07257913        0.68541906       -3.69422813
