58
Modified xyz file
 C            1.46140329       -0.08169000        3.76887509
 C            2.68394372       -0.35656688        3.03840798
 C            2.59977213       -1.71133043        2.52054247
 C            0.61595772       -1.26074238        3.68657835
 C            1.28396014       -2.23789117        2.84357339
 C           -0.72169780       -0.82990330        3.32862928
 C            0.66280308        1.06805888        3.38354567
 C           -0.67366504        0.59807695        3.05602801
 C            1.23238037        2.05272276        2.58799507
 C            3.05231702        0.51873526        1.93957588
 C            2.45480718        1.76754608        1.83825051
 C            3.01455885       -1.68690336        1.12947690
 C            3.16470759       -0.29302542        0.73927240
 C            2.40261562       -2.56304595        0.24913371
 C            0.55857566       -2.88637216        1.84542068
 C            1.23598256       -3.30722886        0.70022626
 C           -1.47539610       -1.64258127        2.50078307
 C           -0.83505644       -2.76654227        1.82929615
 C           -2.37287062       -1.02595691        1.54422771
 C           -1.32472446        1.12018038        1.93490817
 C           -2.20258891        0.31388583        1.19608789
 C            0.36710542        2.82426858        1.71351391
 C           -0.91614685        2.35795466        1.42949258
 C            2.29140993        2.35418572        0.51877395
 C            1.19997660        3.30582248        0.62571382
 C            2.59271982        0.16824949       -0.44939724
 C            2.37588788        1.53909559       -0.61065061
 C            2.10709327       -2.10539590       -1.09395915
 C            2.00540859       -0.73943798       -1.33962112
 C            0.49383316       -3.69130081       -0.48731438
 C            1.08510937       -2.98643811       -1.61668835
 C           -1.59267502       -3.02966892        0.61126030
 C           -2.62351662       -2.00570962        0.50345479
 C           -0.93916105       -3.47489099       -0.53073509
 C           -3.02690245       -1.55729024       -0.74579838
 C           -2.74982791        0.77964720       -0.00415939
 C           -3.24573282       -0.13300132       -0.93809858
 C           -1.59924999        2.91803251        0.35666796
 C           -2.51977282        2.09491689       -0.40357450
 C            0.58593432        3.74987817       -0.53548927
 C           -0.86639989        3.75295006       -0.58357644
 C            1.84986984        2.00662585       -1.81078044
 C            1.06601099        3.23232654       -1.80577253
 C            1.15439577       -0.27859471       -2.35120311
 C            1.20220620        1.06641420       -2.70806169
 C            0.00761838       -2.40676889       -2.38941816
 C           -1.24746432       -2.87133289       -1.81620568
 C           -2.37451850       -2.06892979       -1.94458781
 C            0.10518144       -1.08486240       -2.81777703
 C           -3.06200690        0.13768323       -2.35093658
 C           -2.33602975       -0.98616344       -2.91352604
 C           -1.04102807       -0.49028521       -3.34175129
 C           -2.32876162        2.39496765       -1.81833954
 C           -1.27294967        3.38343507       -1.92791289
 C           -0.08002059        3.03839950       -2.67680052
 C            0.01755588        1.70947241       -3.25556047
 C           -2.36591350        1.35094669       -2.73344881
 C           -1.13702408        0.95537293       -3.41856687
