58
Modified xyz file
 C            1.57804211       -0.10894204        4.23031094
 C            0.72969901       -1.27516068        4.38767074
 C            1.21106221       -2.29377615        3.47526096
 C            2.52641164       -0.38453231        3.16256658
 C            2.28340312       -1.72253195        2.67364745
 C            2.45024784        0.70559114        2.21959059
 C            0.73987697        0.99094686        3.78810208
 C            1.39168604        1.60124202        2.64977096
 C           -0.61004435       -0.91468101        3.95625209
 C           -0.60736184        0.49455897        3.59945029
 C            0.05771783       -2.83352907        2.77790485
 C           -1.02740681       -1.87623975        2.94780437
 C            0.27303861       -3.36102758        1.51655768
 C            2.26026538       -1.95356680        1.29910414
 C            1.53911445       -3.06410041        0.86888410
 C            2.53847419        0.43499410        0.85999416
 C            2.49100815       -0.89329810        0.39973191
 C            2.16831335        1.45815007       -0.00862092
 C            0.59996362        2.15723620        1.65382951
 C            1.19849851        2.37205476        0.41824317
 C           -1.28548639        0.87957649        2.44766126
 C           -0.78351839        1.93918855        1.68416631
 C           -1.70212117       -1.39589069        1.82517543
 C           -2.09865869       -0.05832334        1.81822442
 C           -0.74106224       -3.16507461        0.49971112
 C           -1.60202173       -2.07875009        0.60676163
 C            1.34554907       -3.28442384       -0.54446488
 C           -0.08973490       -3.41345717       -0.76867952
 C            2.43766875       -1.12883071       -0.98646201
 C            1.83643383       -2.29185077       -1.47226874
 C            2.43520976        1.29506264       -1.35911758
 C            2.58442498       -0.05546728       -1.86705357
 C            1.71774353        2.08348588       -2.34778501
 C            0.49479353        3.13288647       -0.50403733
 C            0.78401077        3.01705448       -1.92249794
 C           -1.55855632        2.41335589        0.61852487
 C           -0.94391945        3.22320243       -0.34222618
 C           -2.91665503        0.38117957        0.79044345
 C           -2.74858340        1.74275024        0.31806480
 C           -2.11427499       -1.48422589       -0.55136063
 C           -3.03644609       -0.45654843       -0.38730539
 C           -0.42569628       -2.57180710       -1.90033570
 C            0.83064391       -2.18896118       -2.51644208
 C           -1.42613477       -1.61162285       -1.77078464
 C            1.91557228       -0.11257796       -3.15798932
 C            1.37958380        1.20546966       -3.45342866
 C            0.84954010       -1.07941770       -3.34346484
 C           -1.49231875       -0.59338327       -2.72993583
 C           -0.01643856        1.04754475       -3.82611262
 C           -0.38314716       -0.33117558       -3.53738733
 C           -0.47543314        3.14422998       -2.64277550
 C           -1.52474955        3.38725127       -1.66557174
 C           -0.91309326        2.06195457       -3.51271582
 C           -3.31023442        1.78093359       -1.02261528
 C           -3.35364268        0.40885314       -1.50591437
 C           -2.52613706        0.33578905       -2.68923397
 C           -2.67147871        2.58862070       -2.03961270
 C           -2.26364122        1.70001088       -3.11720977
