58
Modified xyz file
 C            1.62068490       -0.34915533        4.18143138
 C            0.74375687       -1.50542899        4.13621223
 C            1.17831202       -2.34287185        3.03609903
 C            2.55544505       -0.45118797        3.07225940
 C            2.28610676       -1.68257456        2.36817725
 C            2.49125294        0.78286500        2.32325170
 C            0.80761954        0.83120997        3.95404225
 C            1.44979412        1.61369747        2.91715767
 C           -0.59442078       -1.04052187        3.81643573
 C           -0.55845722        0.40767713        3.72449447
 C            0.00934832       -2.66636142        2.23411925
 C           -1.06729816       -1.78844793        2.66139354
 C            0.19519766       -2.84083446        0.87022724
 C            2.26581919       -1.67383467        0.97966007
 C            1.47897802       -2.63655919        0.36367951
 C            2.58844396        0.74109537        0.93384967
 C            2.53643892       -0.49421536        0.26706617
 C            2.21775080        1.89132531        0.25156789
 C            0.64745203        2.36085057        2.06016820
 C            1.21794724        2.75709648        0.85505618
 C           -1.25215410        1.00974112        2.68388934
 C           -0.74013317        2.18395060        2.12204003
 C           -1.79741862       -1.10763493        1.68839359
 C           -2.12502711        0.22685229        1.92576875
 C           -0.88712105       -2.59860214        0.02591885
 C           -1.78085380       -1.57845286        0.36887567
 C           -0.75801380       -2.97949848       -1.30639472
 C            1.69241315       -2.86475409       -0.98255115
 C            0.57028838       -3.34833121       -1.75975104
 C            2.42647575       -0.53380153       -1.13446559
 C            2.30447289       -1.79026541       -1.74209672
 C            1.96052491        1.83370817       -1.17041088
 C            2.09249652        0.63132464       -1.84867088
 C            0.37734954        3.28704164       -0.20343591
 C            0.81602688        2.69022132       -1.46086832
 C           -1.55609141        2.89485287        1.24557913
 C           -0.97500807        3.46964294        0.04063154
 C           -2.97872925        0.86654039        1.04080244
 C           -2.82847919        2.30060661        0.87653819
 C           -2.38718130       -0.81525452       -0.63744395
 C           -3.15957219        0.28586808       -0.27834429
 C           -1.35509253       -2.15115405       -2.33986564
 C           -1.97001035       -0.95796849       -1.96696756
 C            0.74333658       -2.87749037       -3.11868502
 C            1.82808653       -1.90764476       -3.10833407
 C           -0.46866190       -2.17400746       -3.49364155
 C            1.48207194        0.55143950       -3.09840310
 C            1.35144687       -0.72198477       -3.77625481
 C           -0.06314784       -0.91367074       -4.07058901
 C           -0.11355598        2.29353439       -2.42857413
 C           -1.85340521        0.17394971       -2.79430959
 C            0.24412691        1.27983121       -3.31659594
 C           -0.75616209        0.28046223       -3.63942085
 C           -1.90876745        3.26716307       -1.04838118
 C           -3.09537118        2.62453422       -0.51087525
 C           -3.28273089        1.37346142       -1.22457421
 C           -1.47680423        2.50384922       -2.20418643
 C           -2.38979628        1.37811647       -2.36069459
