58
Modified xyz file
 C            1.07948893        0.04883490        4.16343136
 C            2.33211816       -0.25653142        3.51487030
 C            2.27583688       -1.65956733        3.13466398
 C            0.25841198       -1.15283008        4.09735332
 C            0.87201781       -2.01300241        3.10755862
 C           -1.10608098       -0.72746348        3.89197214
 C            0.27310465        1.12584795        3.63110987
 C           -1.10282131        0.72639779        3.85145252
 C            0.60760957        1.71847809        2.40987749
 C            2.68265578        0.47629971        2.31514032
 C            1.71465235        1.25910018        1.67734894
 C            3.03665199       -1.79059759        1.91427963
 C            3.45719161       -0.45148868        1.52605360
 C            2.38915956       -2.36984450        0.75432079
 C            0.24629972       -2.20862123        1.87049554
 C            1.01822289       -2.61509140        0.77067313
 C           -1.79525332       -1.16785568        2.69932243
 C           -1.10008474       -1.83932488        1.68989584
 C           -2.09875394        1.13520596        2.87828628
 C           -2.68284931       -0.08207236        2.33131179
 C           -0.36863330        2.47593022        1.77303522
 C           -1.77575260        2.17040567        2.01088451
 C           -0.21913227        2.80454659        0.37098098
 C            1.76649428        1.42897098        0.27691166
 C            0.78669988        2.19775551       -0.37385477
 C            3.34457197       -0.37349051        0.09084932
 C            2.95212699       -1.68636860       -0.39262511
 C            2.72228224        0.72622921       -0.47953482
 C            2.28100366       -1.74277725       -1.61058698
 C            0.40182208       -2.85257598       -0.45108967
 C            1.09485628       -2.48164460       -1.68064302
 C           -1.68084504       -1.90797356        0.42020007
 C           -1.00140380       -2.53085796       -0.61638902
 C           -3.19587785       -0.06642468        1.04335358
 C           -2.77952241       -1.10543037        0.11613536
 C           -2.46293650        2.26037658        0.73560639
 C           -1.55459443        2.91365281       -0.19207301
 C           -3.22826642        1.18361972        0.29960303
 C           -1.71578146        2.71686036       -1.55493075
 C            0.67258715        2.17658668       -1.76879471
 C           -0.52778710        2.56329385       -2.37228596
 C            2.58385042        0.66679041       -1.85886133
 C            2.44819865       -0.65198499       -2.46098498
 C            1.64984952        1.54250130       -2.52565463
 C            1.61155807       -0.51814427       -3.63704753
 C            1.29277553        0.89231083       -3.77818717
 C            0.07742209       -2.15594174       -2.67438569
 C           -1.20378170       -2.07512028       -1.98563121
 C            0.36794069       -1.25924930       -3.69413041
 C           -2.92828349       -0.57489874       -1.22997411
 C           -3.23802926        0.84537954       -1.11341230
 C           -2.68315068        1.73257511       -2.02517286
 C           -2.07747144       -1.01698011       -2.24265335
 C           -0.96253480        1.91824470       -3.59917901
 C           -0.07108064        0.98337885       -4.25416213
 C           -0.66464654       -0.34315628       -4.14441948
 C           -2.18584818        1.20319918       -3.28227343
 C           -1.88625788       -0.21546240       -3.36804055
