58
Modified xyz file
 C            1.46859104        0.09616526        3.91105062
 C            0.67415285       -1.11745887        3.88242425
 C            1.17507589       -1.96339684        2.81426778
 C            2.47195916       -0.00867294        2.86834405
 C            2.33947398       -1.30337143        2.23530564
 C            2.35819904        1.16158725        2.02785420
 C            0.59075610        1.20221408        3.56567837
 C            1.13275246        1.84792199        2.39445101
 C           -0.71623264       -0.72470883        3.84660947
 C           -0.75764159        0.69193979        3.49780450
 C           -1.61248092       -1.57677000        3.22244716
 C            0.26694245       -2.60915416        1.97167934
 C           -1.10615809       -2.52525759        2.23235019
 C            0.68908602       -2.97943255        0.69561665
 C            2.54286207       -1.38683739        0.86236222
 C            1.93176395       -2.43231668        0.17739498
 C            2.62627567        1.02684999        0.67340335
 C            2.92735039       -0.24034883        0.15549042
 C            2.09776135        1.98881272       -0.18261245
 C            0.27925179        2.23404693        1.36694923
 C            0.86862089        2.57554949        0.15201698
 C           -1.59840813        1.10747166        2.46527112
 C           -1.08031368        1.86253193        1.39040798
 C           -2.82494751       -0.99332164        2.68299693
 C           -2.79530560        0.40933854        2.31229908
 C           -2.04413874       -2.54185334        1.11707705
 C           -3.19247532       -1.74596733        1.49748315
 C           -0.26857096       -2.99192250       -0.39972480
 C           -1.54752781       -2.48685270       -0.18472346
 C            1.82867050       -2.38663501       -1.27212760
 C            0.44854324       -2.68863692       -1.62500492
 C            3.18852501       -0.35566739       -1.20980939
 C            2.52023121       -1.40240296       -1.96546793
 C            2.59283235        2.04675311       -1.48168157
 C            3.18681718        0.84509714       -2.03124319
 C            1.80938414        2.66146094       -2.53373418
 C            0.06106230        3.13825910       -0.82371999
 C            0.51125001        3.20329525       -2.20135326
 C           -1.89117342        2.14181251        0.27200227
 C           -1.33597577        2.76903936       -0.84127157
 C           -3.54921437        0.53317773        1.08758001
 C           -3.72762115       -0.80608525        0.54153393
 C           -3.01836261        1.36476387        0.03406258
 C           -2.15734456       -1.66994365       -1.15422976
 C           -3.18216436       -0.79575961       -0.79990908
 C           -3.07585543        0.59605702       -1.19746980
 C           -0.18806580       -1.96131070       -2.61796070
 C           -1.51325525       -1.42378618       -2.36470081
 C            1.91234447       -0.78366395       -3.13274438
 C            2.48940455        0.54074398       -3.27131869
 C            1.62311745        1.66501921       -3.57741676
 C            0.55852229       -0.98047827       -3.39093968
 C           -0.47954429        2.51677225       -3.01535533
 C           -1.60393675        2.19750318       -2.15442059
 C           -2.20299006        0.94132154       -2.22448967
 C           -1.57512762       -0.08468002       -2.93782133
 C            0.19438959        1.44526343       -3.72132571
 C           -0.32113697        0.15592428       -3.64163792
