58
Modified xyz file
 C            1.47682108       -0.08071229        4.58651920
 C            0.67490715       -1.28511730        4.51268090
 C            1.28238245       -2.14134701        3.51633083
 C            2.46907614       -0.13364596        3.52167197
 C            2.28362749       -1.36847665        2.79850045
 C            2.37532051        1.10225979        2.78586377
 C            0.60240790        1.03448897        4.28902701
 C            1.34486396        1.91962593        3.42179696
 C           -0.64097652       -0.92146218        4.00619760
 C           -0.65256237        0.50566032        3.78118102
 C            0.20058847       -2.70075321        2.74012954
 C           -0.92850315       -1.79208627        2.88857028
 C            0.50662782       -3.10337062        1.45700382
 C            2.22098415       -1.35555483        1.40228097
 C            1.64830444       -2.47168184        0.80312223
 C            2.44010959        1.07725737        1.39179013
 C            2.23449886       -0.13392818        0.69888331
 C            2.17863554        2.27960289        0.74870485
 C            0.60683678        2.74964919        2.59870731
 C            1.25054912        3.19630058        1.38470241
 C           -1.12871886        1.00777990        2.56939602
 C           -0.72608387        2.29376672        2.21148900
 C           -1.50323960       -1.25886345        1.73337975
 C           -1.58865207        0.13209440        1.56879864
 C           -0.55170554       -3.06056742        0.47932919
 C           -1.52628772       -2.06887846        0.59759380
 C            1.36479967       -2.46135059       -0.61728056
 C            0.12646525       -3.20277492       -0.78586944
 C            1.95563054       -0.11549767       -0.68971750
 C            1.53933194       -1.29038935       -1.34630894
 C            1.88559260        2.28748184       -0.66415233
 C            1.96546939        1.10407158       -1.38917457
 C            0.20176208        3.47887973        0.43073945
 C           -0.98158109        2.77562600        0.86906442
 C            0.71963266        3.13753826       -0.87336829
 C           -1.95349624        0.63991571        0.31370790
 C           -1.59408086        1.94292678       -0.05391686
 C           -2.12759569       -1.60244077       -0.57188120
 C           -2.41813767       -0.23373239       -0.67657952
 C           -0.61699452       -2.96320263       -1.91903809
 C           -1.92157207       -2.36147729       -1.72844661
 C            0.94650637       -1.22188742       -2.61342367
 C           -0.00742074       -2.18202889       -2.96961580
 C            1.46008154        1.15731063       -2.68873852
 C            1.08038316       -0.06227813       -3.36495352
 C           -0.17816942        2.72208419       -1.84315962
 C           -1.42499706        2.23819997       -1.40837529
 C            0.40706646        2.12523669       -2.94937233
 C           -2.82145675        0.31057560       -1.90155716
 C           -2.25918457        1.58641251       -2.30989329
 C           -2.31616945       -1.84600747       -3.02305897
 C           -1.11195597       -1.82970002       -3.84629861
 C           -2.90320968       -0.53116897       -3.08165487
 C            0.06888369        0.29686833       -4.35389502
 C           -0.44140184        1.60934703       -3.99793679
 C           -1.84812972        1.46940246       -3.69871948
 C           -1.07440330       -0.57106377       -4.55439361
 C           -2.27146047        0.17108260       -4.18638229
