58
Modified xyz file
 C            1.24372143        0.02226415        3.64826007
 C            2.52329815       -0.26764030        3.04653026
 C            2.47891746       -1.63400111        2.54855384
 C            0.41326969       -1.16615662        3.52061119
 C            1.10356621       -2.09387033        2.65484819
 C           -0.91324469       -0.73409255        3.14131552
 C            0.47560454        1.14266968        3.14388306
 C           -0.91351288        0.71989688        3.09894609
 C            0.97147506        1.93429051        2.11005306
 C            2.98585229        0.57229077        1.96177650
 C            2.22147524        1.65923615        1.52924422
 C            3.12815149       -1.65318818        1.24734146
 C            3.59846878       -0.30338538        0.97525453
 C            2.54969628       -2.39638652        0.22618773
 C            0.45809753       -2.56258597        1.51400315
 C            1.23645238       -2.98641954        0.43783664
 C           -1.60184840       -1.42058042        2.14864108
 C           -0.91425209       -2.33213188        1.33057278
 C           -2.77192320       -0.82525117        1.68622329
 C           -1.79498414        1.35722596        2.22781025
 C           -2.88244049        0.62436916        1.75245237
 C            0.07267465        2.78074096        1.46538858
 C           -1.35232620        2.48037450        1.52154752
 C            0.37124831        3.30169764        0.14272260
 C            2.58286565        2.27304854        0.32976429
 C            1.59899720        3.01818514       -0.43510733
 C            3.70376434        0.14062581       -0.33704400
 C            3.40069885        1.53343331       -0.61713372
 C            2.59151111       -1.90391765       -1.14346305
 C            3.13964368       -0.65910070       -1.41681836
 C            0.62888214       -3.15912113       -0.86663305
 C            1.34570793       -2.28771782       -1.78728528
 C           -1.54642503       -2.86669523        0.20496409
 C           -0.75075312       -3.23783802       -0.95571036
 C           -3.38937613       -1.27120630        0.45091914
 C           -2.78725180       -2.28354496       -0.27961182
 C           -3.59714334        1.07168395        0.57159060
 C           -3.89561536       -0.09567658       -0.24221301
 C           -1.92818701        2.81896354        0.22462227
 C           -0.84296780        3.22313446       -0.65505296
 C           -2.98513304        2.07182201       -0.27891990
 C           -0.78646232        2.73355006       -1.95553712
 C            1.66227074        2.55845479       -1.81624616
 C            2.74553029        1.59683985       -1.91160812
 C            2.43779425        0.23695025       -2.31982429
 C            0.48592576        2.29710241       -2.50659300
 C            0.63470356       -1.36072109       -2.55207099
 C            1.14178898       -0.06880895       -2.73507722
 C            0.28363432        0.97603899       -3.08309714
 C           -1.39228752       -2.67492957       -2.12876014
 C           -2.68255393       -2.14709693       -1.72374766
 C           -0.69446449       -1.63883620       -2.87124901
 C           -3.45413856        0.17805184       -1.60024340
 C           -2.90960935        1.52736364       -1.62730434
 C           -1.81130652        1.81566778       -2.43038686
 C           -1.14825254        0.74830527       -3.16563169
 C           -2.83857586       -0.83387809       -2.32901818
 C           -1.63065243       -0.54949882       -3.09047617
