58
Modified xyz file
 C            1.54626743       -0.19502723        4.33661603
 C            0.67224174       -1.35207554        4.39128718
 C            1.16465946       -2.32264910        3.43252792
 C            2.55053581       -0.44219106        3.31525523
 C            2.27728310       -1.72569169        2.70987368
 C            2.58455339        0.71475214        2.45270366
 C            0.75418809        0.94095260        3.89629116
 C            1.47966568        1.58838478        2.82846310
 C           -0.64296175       -0.93683349        3.93809113
 C           -0.58312058        0.47808773        3.60825710
 C            0.02632880       -2.79366494        2.66441357
 C           -1.06977832       -1.86369858        2.89931129
 C            0.26113050       -3.21219974        1.36571788
 C            2.29170446       -1.83063109        1.32030412
 C            1.52023613       -2.83846040        0.73976618
 C            2.83170628        0.54013744        1.09562274
 C            2.71264510       -0.74373003        0.53495148
 C            2.59292290        1.65241520        0.29493368
 C            0.76588199        2.19821346        1.80019820
 C            1.50234304        2.53412234        0.67555037
 C           -1.18330055        0.88905368        2.42435957
 C           -0.59649952        1.89752592        1.64234481
 C           -1.76814275       -1.34591779        1.80822797
 C           -2.07546232        0.01309764        1.81781167
 C           -0.76873859       -2.99915812        0.36771807
 C           -1.73803503       -2.02052859        0.58220744
 C            1.31013624       -2.85935841       -0.69694266
 C           -0.11283481       -3.07567650       -0.92390828
 C            2.76332122       -0.89431348       -0.85426245
 C            2.00722874       -1.96142052       -1.49106774
 C            2.58917953        1.53172858       -1.14951691
 C            2.69127394        0.27310214       -1.71980255
 C            0.81979104        2.94089671       -0.52956545
 C            1.61304862        2.48071287       -1.66012822
 C           -1.27943424        2.31417804        0.48579930
 C           -0.56630679        2.86716168       -0.59333256
 C           -2.89553583        0.51472720        0.82625468
 C           -2.57323721        1.82105611        0.29179879
 C           -2.40107403       -1.46130627       -0.51616486
 C           -3.19419424       -0.33552299       -0.30792330
 C           -0.73368557       -2.49042153       -2.01598981
 C           -1.98733965       -1.78376501       -1.81250444
 C            1.38181872       -1.42237112       -2.68875564
 C            1.87183214       -0.06584862       -2.87481541
 C            0.05359467       -1.72625145       -2.97195039
 C            0.97428148        2.22992122       -2.86668708
 C            1.04652412        0.89736917       -3.44952953
 C           -1.16328899        3.02557723       -1.84689609
 C           -0.38566728        2.71245667       -3.03474566
 C           -3.21325327        1.90342822       -1.00584477
 C           -3.52473910        0.54194521       -1.41949937
 C           -2.50775452        2.54590153       -2.08719872
 C           -2.11237704       -0.81133683       -2.88950765
 C           -0.81482802       -0.71167353       -3.54940178
 C           -0.29133020        0.53201510       -3.89008744
 C           -1.12538705        1.71639172       -3.79236277
 C           -2.90233209        0.31847078       -2.70958321
 C           -2.44568504        1.60794058       -3.19868325
