58
Modified xyz file
 C            1.37185475        0.05953078        4.15051706
 C            0.60828498       -1.15981427        3.95453830
 C            1.43886869       -2.08555729        3.22096864
 C            2.58381315       -0.04782609        3.35622966
 C            2.62928091       -1.37332417        2.78369920
 C            2.61289805        1.07904475        2.45155641
 C            0.59018227        1.16347403        3.61661458
 C            1.40214771        1.85900762        2.64850864
 C           -0.67397567       -0.79543160        3.38165251
 C           -0.67772495        0.64138408        3.17414143
 C           -1.23966320       -1.58929062        2.38422960
 C            0.86422318       -2.72661543        2.05904207
 C           -0.50655713       -2.66223163        1.84094738
 C            2.71683874       -1.49858240        1.33740695
 C            1.73780569       -2.48600177        0.92218148
 C            3.03851985        0.89964107        1.14179530
 C            2.89380571       -0.36778784        0.54699386
 C            2.89312454        2.01536346        0.32992873
 C            0.80013720        2.39931623        1.51275510
 C            1.67062510        2.78936903        0.49856622
 C           -1.22645954        1.11505239        1.98998299
 C           -0.50466806        2.00119536        1.16677548
 C           -2.26594971       -1.01912057        1.62368392
 C           -2.25917654        0.37221735        1.43127871
 C           -2.99182217       -1.85130237        0.77556851
 C           -0.93668575       -3.21057027        0.63945714
 C           -2.30695913       -2.99696516        0.22575833
 C            1.15398649       -2.39217872       -0.34386929
 C           -0.08199442       -3.01998146       -0.52581304
 C            2.54381240       -0.45705120       -0.80264430
 C            1.51927620       -1.33499579       -1.19226316
 C            3.13444236        1.87477405       -1.08764497
 C            2.95452830        0.56004085       -1.65799785
 C            1.15391758        3.08275141       -0.82140455
 C            2.21515516        2.76630731       -1.76662688
 C           -1.02069622        2.32276026       -0.10263112
 C           -0.16202072        2.74830097       -1.12532898
 C           -2.99372702        0.96053192        0.41196592
 C           -2.33187919        1.94978679       -0.41904385
 C           -3.79457757       -1.28827277       -0.29102661
 C           -3.84191952        0.15019614       -0.43657093
 C           -2.30878383       -2.84672554       -1.21816918
 C           -0.93603739       -2.62120028       -1.62997031
 C           -3.30167488       -1.84723822       -1.54331540
 C            0.71616792       -1.03006070       -2.30221264
 C           -0.60596626       -1.47730435       -2.34611781
 C            2.28801513        0.73789003       -2.93164047
 C            1.86923452        2.13244466       -3.02104137
 C            1.13611655       -0.08542476       -3.23116454
 C           -0.52403542        2.55990092       -2.46168418
 C            0.48004712        2.14123571       -3.42457848
 C            0.13768764        0.78440419       -3.81190813
 C           -2.69070739        1.67039096       -1.80397984
 C           -3.49566588        0.46074771       -1.80987170
 C           -2.91192978       -0.73613243       -2.38512232
 C           -1.61167892       -0.65098477       -2.87920619
 C           -1.70763593        1.78839958       -2.77255289
 C           -1.24422573        0.57251289       -3.43134312
