58
Modified xyz file
 C            1.29294288       -0.17388239        3.89894373
 C            2.54292009       -0.37931546        3.19321330
 C            2.46347623       -1.65740107        2.50593971
 C            0.46625740       -1.35397371        3.69706435
 C            1.17839676       -2.25955348        2.81799888
 C           -0.86343584       -0.91131434        3.31899978
 C            0.49029231        0.99728288        3.58369991
 C           -0.85690245        0.54279180        3.28352268
 C            1.03976997        2.02633912        2.82927764
 C            2.97162766        0.61875433        2.23135116
 C            2.36336299        1.86829573        2.23591720
 C            2.82107332       -1.44226265        1.11258558
 C            3.20668900       -0.05369780        0.95873265
 C            2.05820575       -2.03600659        0.11518095
 C            0.47697036       -2.89067587        1.80132449
 C            1.05847664       -2.94373506        0.47105953
 C           -1.57233240       -1.59778549        2.33308345
 C           -0.95028961       -2.63644140        1.63381677
 C           -2.66295303       -0.95173069        1.75279429
 C           -1.61279534        1.17865938        2.30269114
 C           -2.73640026        0.49816139        1.85057491
 C            0.20121311        2.70372977        1.85579719
 C           -0.99853138        2.11820850        1.46267562
 C            2.38802013        2.64959139        1.01585196
 C            1.07674136        3.25780883        0.84408773
 C            2.90621258        0.59833725       -0.23531706
 C            2.71455575        1.98190318       -0.22993382
 C            2.04659783       -1.47288444       -1.16213238
 C            2.47762371       -0.14577558       -1.34023366
 C            1.32122564       -2.12879836       -2.15846900
 C           -0.03011447       -3.21071123       -0.45269048
 C           -1.26513450       -2.85135950        0.22485292
 C            0.13072968       -2.86645103       -1.78162456
 C           -3.07220894       -1.30504088        0.40392306
 C           -2.19047206       -2.02048901       -0.40345822
 C           -3.43835734        0.98722640        0.68289742
 C           -3.79454568       -0.16666207       -0.12738472
 C           -1.45315296        2.29547917        0.14753035
 C           -2.75478131        1.92865875       -0.17622093
 C            0.70885785        3.11024321       -0.55223587
 C            1.87209436        2.58573321       -1.24574587
 C           -0.54789987        2.60601891       -0.87766585
 C            2.18987348        0.54309452       -2.52079143
 C            1.67372487        1.89500100       -2.42720306
 C            1.02917111       -1.46897217       -3.41404118
 C            1.46535529       -0.10596421       -3.59625442
 C           -0.98100109       -2.25662643       -2.48673630
 C           -2.03703662       -1.70165634       -1.76357047
 C           -0.41394470       -1.51190310       -3.60255936
 C           -3.59683133        0.19592797       -1.51019022
 C           -3.05890444        1.54973773       -1.54033624
 C           -2.72805991       -0.62610807       -2.32741920
 C           -0.76063414        2.12471222       -2.17618723
 C            0.33725634        1.85820298       -2.99322990
 C            0.29248606        0.70781736       -3.88197488
 C           -0.87526808       -0.15720273       -3.85515094
 C           -1.99018314        1.56949516       -2.51964703
 C           -2.02002962        0.28716896       -3.20698404
