58
Modified xyz file
 C            1.17893490       -0.13938072        4.13925253
 C            2.38732565       -0.28094605        3.34821763
 C            2.24946897       -1.48038186        2.53656844
 C            0.35427786       -1.31003333        3.89112975
 C            0.92769793       -2.02968746        2.76434054
 C           -1.01911166       -0.86539942        3.79634423
 C            0.34496444        1.04000783        3.95758011
 C           -1.02377949        0.58886732        3.77429284
 C            0.80401252        2.09100538        3.17292660
 C            2.78322671        0.80621237        2.47129830
 C            2.12983144        2.02763593        2.57002595
 C            2.63087752       -1.14538251        1.18109374
 C            3.04979072        0.24296456        1.15306410
 C            1.86113007       -1.60967685        0.12826712
 C            0.12364912       -2.33340742        1.66303226
 C            0.69221814       -2.33879745        0.37939267
 C           -1.79849109       -1.31146409        2.66376651
 C           -1.26809490       -2.26093734        1.79686173
 C           -1.75786323        1.01427917        2.58732220
 C           -2.43602376       -0.14914172        2.06949307
 C           -0.08646283        2.65763917        2.17331888
 C           -1.15759962        1.89864711        1.70285303
 C            2.10903183        2.89541888        1.40933596
 C            0.74432598        3.37790831        1.24054107
 C            2.79008907        0.99523270        0.00423011
 C            2.52751836        2.36076572        0.12598150
 C            2.03051166       -1.00973219       -1.11248497
 C            2.41604850        0.33513934       -1.17431219
 C            1.48443878       -1.64197536       -2.22122904
 C           -0.06243057       -2.79834202       -0.70485836
 C            0.43768951       -2.62452572       -2.00010821
 C           -2.04991292       -2.55347277        0.68960876
 C           -1.41650806       -3.06425697       -0.50714779
 C           -2.74331418       -0.22689284        0.71909761
 C           -2.96436021       -1.51444306        0.24685508
 C           -1.37619457        1.75889737        0.32054640
 C           -2.21647645        0.73207290       -0.16509464
 C            0.43085516        3.29000568       -0.16517970
 C            1.67681704        3.00267097       -0.85682759
 C           -0.72478222        2.62682450       -0.57335515
 C            2.10053901        1.09660422       -2.30208417
 C            1.59389010        2.44739760       -2.12060633
 C            1.14097570       -0.87107615       -3.40466042
 C            1.35705001        0.49889379       -3.40015825
 C           -0.46477851       -2.56487136       -3.14011450
 C           -0.12583226       -1.38070082       -3.91023698
 C           -2.37460131       -2.83443426       -1.57718200
 C           -3.20807876       -1.71827323       -1.15742830
 C           -1.89201488       -2.53727384       -2.90806602
 C           -2.39485427        0.56177151       -1.55171565
 C           -1.28952291       -0.50402447       -3.91943975
 C           -2.94120321       -0.62117774       -2.05451946
 C           -2.36959277       -1.20626430       -3.25512824
 C           -0.88803727        2.45862035       -1.94232374
 C            0.30212835        2.49624900       -2.77788138
 C            0.23868159        1.37897122       -3.69702141
 C           -1.74127188        1.40394745       -2.44390145
 C           -1.10680283        0.84172293       -3.63357304
