58
Modified xyz file
 C            1.60415417       -0.07881611        4.40452528
 C            0.75105985       -1.25087462        4.45540306
 C            1.23812043       -2.18806925        3.46252706
 C            2.53852478       -0.24963987        3.30293331
 C            2.27470637       -1.52958116        2.68317392
 C            2.46139655        0.93614197        2.47847383
 C            0.76559266        1.05682634        4.07513186
 C            1.46420282        1.82271403        3.06249046
 C           -0.58579024       -0.85281981        4.04293843
 C           -0.56406633        0.56379953        3.75196753
 C            0.08144019       -2.69533899        2.75200158
 C           -1.00614976       -1.75773758        2.99595368
 C            0.27628604       -3.12352123        1.44828531
 C            2.19968475       -1.61107459        1.29336637
 C            1.46791243       -2.66106139        0.75088389
 C            2.49144955        0.80284486        1.09334096
 C            2.42870040       -0.47342723        0.50562134
 C            2.13793508        1.91649522        0.33302456
 C            0.69174859        2.57699953        2.19337115
 C            1.18194735        2.78727920        0.84317517
 C           -1.16869773        1.02900573        2.58499084
 C           -0.71874597        2.23810038        2.06742204
 C           -1.69624321       -1.25182389        1.89818896
 C           -1.83418991        0.13780729        1.73052553
 C           -0.82254321       -2.99020380        0.50895584
 C           -1.83952437       -2.08504832        0.78982144
 C            1.16619574       -2.65696578       -0.66499221
 C           -0.24164421       -2.99506692       -0.82130263
 C            2.34943109       -0.57197645       -0.89211586
 C            1.70544558       -1.67454229       -1.48171352
 C            2.30756250        1.86355769       -1.04118267
 C            2.60078654        0.57936865       -1.64062771
 C            1.32677425        2.51720163       -1.89611529
 C            0.02956473        3.11482900        0.02355702
 C           -1.14491694        2.64495413        0.74506732
 C            0.10224079        2.90773969       -1.35227948
 C           -2.43777725        0.62186211        0.55962092
 C           -2.08333160        1.88788238        0.06008286
 C           -2.65165341       -1.66932494       -0.25309468
 C           -3.10474496       -0.29485311       -0.25514099
 C           -0.95890570       -2.42403567       -1.87036334
 C           -2.26112250       -1.98969136       -1.61873506
 C            1.16439425       -1.57610916       -2.76148060
 C           -0.24239400       -1.89697542       -2.94781556
 C            2.19982079        0.66048705       -3.03330362
 C            1.37302655        1.84992345       -3.18505228
 C            1.48789705       -0.45241390       -3.61237001
 C           -0.82250601       -0.86586771       -3.79956632
 C            0.13223115        1.45673708       -3.82315918
 C            0.24453439        0.05038588       -4.17483049
 C           -1.08410980        2.64591154       -2.04229283
 C           -2.24180581        2.18437915       -1.29165150
 C           -1.06847544        1.93348373       -3.31406806
 C           -3.43884177        0.03902089       -1.62766657
 C           -2.87954193       -0.99939162       -2.48222376
 C           -2.08077471       -0.35663036       -3.50701930
 C           -3.01932644        1.31701393       -2.14867490
 C           -2.24694420        1.08013047       -3.35798308
