58
Modified xyz file
 C            1.27599153        0.05688289        4.09097128
 C            2.46308869       -0.12788989        3.28372431
 C            2.41958145       -1.47617441        2.74755647
 C            0.41166479       -1.09791061        3.88142501
 C            1.07369735       -1.98586724        2.95060748
 C           -0.90953578       -0.61025722        3.55005217
 C            0.47988851        1.24769229        3.88316375
 C           -0.90386887        0.82903328        3.75210066
 C            0.77771381        2.11555004        2.75597757
 C            2.71439049        0.77221619        2.17058727
 C            1.88526828        1.87339748        1.93823020
 C            2.94541900       -1.43492680        1.39320419
 C            3.15300836       -0.03853900        1.04199518
 C            2.38510830       -2.28059634        0.45117855
 C            0.37402905       -2.46779841        1.84785432
 C            1.11571379       -2.92013480        0.75790489
 C           -1.56840616       -1.12048575        2.43496999
 C           -0.97976524       -2.14267827        1.67551541
 C           -2.58812081       -0.35106112        1.87741518
 C           -1.53110147        1.67008559        2.74627435
 C           -0.49066241        2.48879527        2.14333412
 C           -2.48695879        1.09878884        1.92380495
 C           -0.52163018        2.76381061        0.77650882
 C            1.91013409        2.45898581        0.67670558
 C            0.68901904        3.04212020        0.14643360
 C            2.87854203        0.40533110       -0.25122347
 C            2.55270159        1.74939811       -0.41688016
 C            2.32182652       -1.84900945       -0.93142116
 C            2.56969232       -0.51851552       -1.26034926
 C            0.45469225       -3.21051884       -0.49977947
 C            1.19987628       -2.53432766       -1.55532628
 C           -1.67066124       -2.65943727        0.57560108
 C           -0.92838054       -3.22685602       -0.53975925
 C           -3.14808001       -0.71154031        0.58918874
 C           -2.80183939       -1.92737717        0.02650707
 C           -2.62052253        1.57912949        0.56244842
 C           -1.64061925        2.40187643        0.01225239
 C           -3.15992163        0.48974464       -0.23753342
 C           -1.61615004        2.54562070       -1.37472288
 C            0.78256504        3.01490002       -1.30136211
 C            1.94668715        2.20742315       -1.65321968
 C           -0.38328052        2.91870433       -2.04602463
 C            2.15665258       -0.07129819       -2.51507604
 C            1.89252691        1.34013811       -2.73389302
 C            0.53004805       -1.91145693       -2.60811969
 C            1.14442258       -0.83049725       -3.23683162
 C           -1.59310399       -2.84056057       -1.76836717
 C           -2.75264436       -2.03626924       -1.41788459
 C           -0.84085849       -2.11658291       -2.77967881
 C           -2.83306204        0.42128192       -1.59159105
 C           -2.28818352        1.55043902       -2.19930513
 C           -2.70725783       -0.82200350       -2.21554444
 C           -1.68691927       -1.02243511       -3.23476310
 C           -0.35477694        2.25369037       -3.33735556
 C            0.80167295        1.45154617       -3.68689398
 C            0.33796024        0.10903766       -3.99697864
 C           -1.53227573        1.40628045       -3.43168345
 C           -1.10499597        0.08110566       -3.84192493
