58
Modified xyz file
 C            1.48210723       -0.06184399        4.00663581
 C            0.70188956       -1.26839250        3.79769763
 C            1.40810420       -2.09554623        2.83445381
 C            2.61119931       -0.10522224        3.09537038
 C            2.67894486       -1.44079552        2.53978007
 C            2.49865923        1.01414307        2.17629659
 C            0.65332266        1.06620930        3.62655681
 C            1.32015908        1.77596110        2.55095540
 C           -0.66210174       -0.87215276        3.50625685
 C           -0.69238441        0.57843854        3.38522283
 C           -1.38853516       -1.62936145        2.60124626
 C            0.69132957       -2.71114803        1.80430211
 C           -0.69983561       -2.60909573        1.76898705
 C            1.36847558       -3.13138905        0.66282548
 C            3.22320703       -1.58620744        1.27357783
 C            2.72117361       -2.65594536        0.43574025
 C            2.76003795        0.80100836        0.82331031
 C            3.35400125       -0.40382237        0.42941958
 C            2.12011925        1.60275985       -0.12834727
 C            0.53405929        2.30952629        1.54126134
 C            1.08624052        2.45697083        0.27108356
 C           -1.41928596        1.15745648        2.34732380
 C           -0.85373935        2.24154937        1.66931448
 C           -2.38140164       -0.97002532        1.77247902
 C           -2.43366741        0.41864773        1.72930275
 C           -1.39874701       -2.67690255        0.49226379
 C           -2.49227822       -1.71534876        0.53002604
 C            0.68278774       -3.14291184       -0.62147333
 C           -0.67970554       -2.85725578       -0.68704709
 C            2.82185589       -2.22385965       -0.94715789
 C            3.26283886       -0.84339259       -0.95515173
 C            1.57738679       -2.56045305       -1.61214151
 C            2.31802572        1.34305621       -1.48397821
 C            2.72452101        0.01482019       -1.89976661
 C            1.35714553        1.82320476       -2.46291202
 C            0.37036385        3.17702094       -0.68324426
 C            0.41766827        2.76701704       -2.07569070
 C           -1.63898427        2.96533980        0.78090354
 C           -1.00020458        3.55509945       -0.38278556
 C           -3.16524732        1.00471348        0.70176860
 C           -2.89458271        2.38573621        0.34956160
 C           -2.85755806       -1.04370123       -0.63342729
 C           -3.36008961        0.25749773       -0.53364424
 C           -1.20382085       -2.36805471       -1.88189757
 C           -2.38364262       -1.51673544       -1.85515673
 C            1.04946628       -1.68809593       -2.55808404
 C            1.70327550       -0.47726950       -2.81674237
 C            0.95299903        0.68519295       -3.27805388
 C           -0.29546341       -1.83012862       -2.88323369
 C           -2.30456001       -0.62053514       -2.99590140
 C           -0.37430411        0.54259898       -3.66354889
 C           -0.98667848       -0.76880236       -3.59182014
 C           -0.95193019        2.66472625       -2.55601787
 C           -1.81683745        3.25330745       -1.54784332
 C           -2.97809086        2.51070715       -1.09629268
 C           -3.22418955        1.19014301       -1.64616469
 C           -1.36285778        1.51903588       -3.23248609
 C           -2.55064075        0.79250677       -2.79391251
