58
Modified xyz file
 C            1.48288567        0.19989462        4.08853915
 C            0.68115801       -0.98683971        3.85485845
 C            1.32259003       -1.75957035        2.80933148
 C            2.50830610        0.25117591        3.05982426
 C            2.38879605       -0.93764913        2.25209561
 C            2.40546778        1.52965517        2.40049114
 C            0.62257660        1.35321524        3.89914629
 C            1.32557350        2.27687581        3.03784639
 C           -0.68905499       -0.56780819        3.64757944
 C           -0.67775769        0.87683527        3.46451573
 C           -1.47594430       -1.33360470        2.80687942
 C            0.52753369       -2.49188207        1.92971157
 C           -0.86287449       -2.42607849        2.05769138
 C            1.07907364       -2.82539082        0.69687059
 C            2.49395764       -0.84205389        0.86812458
 C            2.12633265       -1.97285648        0.15232149
 C            2.53539431        1.59872002        1.01365379
 C            2.44724777        0.41848313        0.24101491
 C            2.24202271        2.83022395        0.43553300
 C            0.56449069        3.11231870        2.23662417
 C            1.19721863        3.63306877        1.04270954
 C           -1.25352221        1.44010732        2.31968009
 C           -0.77474374        2.66775442        1.85326595
 C           -2.35867332       -0.65198947        1.88512385
 C           -2.04296854        0.64350042        1.48066765
 C           -1.71548354       -2.66727195        0.90001855
 C           -2.74531617       -1.63435415        0.89435099
 C            0.22365974       -3.23564109       -0.40496313
 C           -1.15852186       -3.08289642       -0.30815731
 C            1.93742687       -1.89391373       -1.27756886
 C            0.91388546       -2.86803977       -1.63233816
 C            2.28812743        0.49253424       -1.15979154
 C            1.95759597       -0.65202760       -1.89737749
 C            2.07517021        2.93423029       -0.99180265
 C            2.14195947        1.72996068       -1.78684169
 C            0.16392979        3.81398280        0.04341955
 C           -0.97390429        3.01810272        0.45664712
 C            0.76849121        3.53668607       -1.23784087
 C           -2.24226556        1.01451652        0.14351382
 C           -1.49703819        2.05726980       -0.40390076
 C           -3.23630670       -1.18924373       -0.31987636
 C           -2.96737248        0.18681719       -0.70992327
 C           -1.91959174       -2.96372881       -1.47080663
 C           -3.02944369       -2.02652546       -1.48504828
 C            0.18654862       -2.70004267       -2.80130928
 C           -1.25536412       -2.86587202       -2.76011761
 C            1.35651740       -0.51026852       -3.15005248
 C            0.47632542       -1.55787394       -3.64791563
 C            1.11078541        1.87597233       -2.79482690
 C            0.07564352        2.65444323       -2.15212896
 C           -1.08478889        1.99269119       -1.74647116
 C            0.71894768        0.74850148       -3.48568650
 C           -2.63774256        0.19324871       -2.12338226
 C           -2.85552849       -1.15328847       -2.63064612
 C           -1.85863803       -1.75882736       -3.48883897
 C           -0.78953053       -0.92650676       -3.99369556
 C           -1.54235482        0.94387625       -2.55094787
 C           -0.70090873        0.45738349       -3.55979364
