58
Modified xyz file
 C            1.44431082        0.02415280        3.99871607
 C            0.66124770       -1.18467629        3.81707313
 C            1.37674928       -2.04739292        2.89314766
 C            2.58728057       -0.05261361        3.10682577
 C            2.64598458       -1.39908334        2.57722040
 C            2.50669836        1.05287807        2.16758392
 C            0.62706489        1.14310268        3.56985746
 C            1.33655818        1.84106213        2.51329463
 C           -0.69577699       -0.79226898        3.48945454
 C           -0.70572922        0.64709522        3.27761913
 C           -1.41898488       -1.59376119        2.62364411
 C            0.66492744       -2.70666693        1.88728793
 C           -0.72822576       -2.62947096        1.86264171
 C            1.33995568       -3.14787993        0.75239684
 C            3.18900829       -1.57530880        1.31448348
 C            2.68463370       -2.66214320        0.50012736
 C            2.78255449        0.81661416        0.82063542
 C            3.33745063       -0.41315307        0.44492995
 C            2.19349025        1.63903603       -0.14743077
 C            0.58946461        2.38631315        1.48046184
 C            1.19574172        2.54232093        0.23605109
 C           -1.36470066        1.17570816        2.16876233
 C           -0.80176070        2.28418991        1.54043790
 C           -2.37703321       -0.97076094        1.73038211
 C           -2.28589172        0.39406254        1.46243231
 C           -1.44099331       -2.79339731        0.60212237
 C           -2.59097839       -1.89557266        0.63600255
 C            0.64577438       -3.20349771       -0.52537114
 C           -0.72600770       -2.97794455       -0.58343157
 C            2.76276205       -2.25222639       -0.89136117
 C            3.21880757       -0.87735920       -0.92948007
 C            1.50252384       -2.58646324       -1.52788047
 C            2.36062614        1.33199542       -1.49675320
 C            2.67844439       -0.02834341       -1.88041799
 C            1.40825490        1.82996727       -2.47087419
 C            0.52656641        3.29425738       -0.72834475
 C            0.59999767        2.89921539       -2.12667212
 C           -1.55456517        2.95451118        0.58853385
 C           -0.84622607        3.67740640       -0.45189325
 C           -2.86074597        0.90243177        0.29126470
 C           -2.65656085        2.24318369       -0.03565411
 C           -3.11480797       -1.41055324       -0.55036679
 C           -3.31974561        0.02296520       -0.69730968
 C           -1.26933210       -2.54301791       -1.78991725
 C           -2.57365654       -1.90762746       -1.79927352
 C            0.93867249       -1.69993568       -2.44226646
 C            1.59068874       -0.49916077       -2.73179124
 C            0.81730657        0.67007872       -3.12998623
 C           -0.41708405       -1.82691510       -2.72834882
 C           -3.13331788        0.35019429       -2.10689142
 C           -2.52712501       -0.80262288       -2.74117569
 C           -0.56787497        0.57183661       -3.26808106
 C           -1.16570708       -0.68497458       -3.23151883
 C           -0.74153829        2.95058673       -2.67484944
 C           -1.60722862        3.55909650       -1.68100916
 C           -2.70503318        2.64233925       -1.43175221
 C           -1.36147440        1.71132423       -3.11048124
 C           -2.65544004        1.60686643       -2.44280674
