58
Modified xyz file
 C            1.47075725       -0.25416743        4.45492253
 C            0.57459324       -1.39633000        4.45068637
 C            1.09225127       -2.36634378        3.50177265
 C            2.54648705       -0.53087669        3.52156529
 C            2.26346556       -1.79413343        2.86082400
 C            2.71827829        0.64727749        2.69620943
 C            0.74027947        0.88844193        3.93501296
 C            1.54402603        1.48871320        2.88222575
 C           -0.71203276       -0.95046054        3.94642907
 C           -0.60296489        0.45216933        3.60072365
 C           -0.01136175       -2.78730139        2.66348508
 C           -1.12040726       -1.87370683        2.90606753
 C            0.26654654       -3.14107353        1.35116639
 C            2.38097360       -1.86647981        1.47057494
 C            1.52117126       -2.70113211        0.75169583
 C            3.18539294        0.46514731        1.40732300
 C            3.07203314       -0.85715899        0.79932603
 C            2.78698845        1.41765184        0.39224800
 C            0.89010160        1.99118736        1.75572443
 C            1.60563096        2.13871511        0.56170855
 C           -1.13794058        0.87163005        2.38965403
 C           -0.50158405        1.90206185        1.70428062
 C           -1.81362489       -1.37444214        1.80693393
 C           -1.97625346        0.01184878        1.67470232
 C           -0.77048121       -2.95660868        0.35268664
 C           -1.87398060       -2.16641234        0.66296761
 C            1.27133864       -2.45044957       -0.66470447
 C           -0.11712946       -2.76612611       -0.93280437
 C            2.86159553       -0.65600001       -0.62892911
 C            3.02954188        0.76631598       -0.87694803
 C            1.84349484       -1.34901743       -1.28428175
 C            2.44333376        1.30903716       -2.00202276
 C            0.95769279        2.63605426       -0.57467063
 C            1.54986822        2.43915244       -1.82450833
 C           -1.16922595        2.47874829        0.63745930
 C           -0.39693267        2.95951221       -0.49334933
 C           -2.63916620        0.50993005        0.54895429
 C           -2.34746667        1.80631789        0.11504608
 C           -2.67678192       -1.74296579       -0.38510867
 C           -3.21881175       -0.39970270       -0.33190101
 C           -0.80286560       -2.06167790       -1.91479018
 C           -2.17789687       -1.91908530       -1.73500472
 C            1.20218212       -0.75899473       -2.37917623
 C            1.75237922        0.41347352       -2.90303665
 C           -0.11131766       -1.13957855       -2.71408104
 C            0.74543028        2.51077425       -3.03478026
 C            0.96704132        1.26973644       -3.76677771
 C           -1.25244837        2.88163285       -1.67076849
 C           -2.46575273        2.16517725       -1.29216962
 C           -0.68686199        2.70218526       -2.92804045
 C           -3.51397648       -0.00735434       -1.70235091
 C           -2.93268418       -1.01607913       -2.57809443
 C           -3.07801687        1.28928538       -2.18108061
 C           -0.79948720       -0.47712454       -3.73832347
 C           -0.31262322        0.79463895       -4.23217117
 C           -1.30682922        1.79759234       -3.88038627
 C           -2.23994017       -0.33247839       -3.64644568
 C           -2.51602863        1.08885342       -3.50566998
