58
Modified xyz file
 C            1.22320238        0.15424113        4.53380198
 C            0.41795329       -1.03142361        4.31948450
 C            1.31286341       -2.04154818        3.79964192
 C            2.40432777        0.02899036        3.69220293
 C            2.49058830       -1.35083435        3.28282589
 C            2.31608539        1.05470584        2.66907905
 C            0.46832772        1.28691718        4.03944659
 C            1.34399231        2.02129599        3.14973909
 C           -0.74478143       -0.64649249        3.52776317
 C           -0.78947613        0.80286384        3.48962355
 C           -1.06910493       -1.36123982        2.37722939
 C            0.82419861       -2.89833050        2.74239321
 C           -0.45042891       -2.58527853        2.11931684
 C            2.57483023       -1.65013857        1.86818436
 C            1.81137985       -2.86070327        1.67952572
 C            2.31073227        0.70720030        1.30981670
 C            2.43708683       -0.63467983        0.91688810
 C            1.86610057        1.66108429        0.38117065
 C            0.73360677        2.82534282        2.21082781
 C            1.27125189        2.82807556        0.86755876
 C           -1.27551776        1.44115312        2.35104657
 C           -0.69989084        2.66956305        2.03107744
 C           -1.74293802       -0.71967995        1.33654021
 C           -1.86322792        0.68035858        1.32764005
 C           -2.03536857       -1.44740239        0.18083434
 C           -0.32496706       -3.02028728        0.74205539
 C            1.09046762       -3.00152301        0.43670930
 C           -1.16629438       -2.46721403       -0.21325277
 C            2.10255585       -0.99197200       -0.39219629
 C            1.46775767       -2.21970551       -0.64048633
 C            1.70971996        1.30985364       -0.97213077
 C            2.03423543        0.00275753       -1.36788650
 C            0.97851888        2.15583231       -1.83437419
 C            0.25949438        3.48601405        0.07470971
 C           -1.00968068        3.28743238        0.76277381
 C            0.07865569        3.05421292       -1.28563079
 C           -2.36353554        1.32790735        0.18490975
 C           -1.88607661        2.59007528       -0.15161464
 C           -1.33647621        2.79392762       -1.47960845
 C           -2.85812604       -0.87023105       -0.77831186
 C           -2.93623556        0.57633278       -0.83602321
 C           -2.79294116       -1.36386442       -2.14707932
 C           -0.71997325       -2.47446863       -1.53616437
 C            0.65502714       -2.30488063       -1.76236473
 C           -1.64756068       -2.16610552       -2.52742543
 C            1.82344091       -0.40179614       -2.68611924
 C            1.09918107       -1.64010742       -2.89486001
 C            0.67004182        1.73043708       -3.11840591
 C            1.32010500        0.55687411       -3.63959598
 C           -1.69857060        1.91678981       -2.49707218
 C           -2.69306527        0.97237213       -2.21914578
 C           -2.83965407       -0.21839904       -3.04032699
 C           -0.73937719        1.65672059       -3.48223086
 C           -1.20074651       -1.70352199       -3.82821851
 C            0.21314536       -1.47468662       -4.02800815
 C            0.38101555       -0.12047800       -4.52144998
 C           -1.90148194       -0.46083268       -4.11919195
 C           -0.90439268        0.54849385       -4.40564158
