58
Modified xyz file
 C            1.59650297       -0.13902860        4.39374210
 C            0.77693543       -1.33185676        4.49772438
 C            1.21194915       -2.25713681        3.46755228
 C            2.50519571       -0.32139467        3.27517315
 C            2.24576946       -1.61180215        2.67418309
 C            2.39425445        0.84358951        2.43264912
 C            0.72324263        0.97607289        4.06602865
 C            1.27009037        1.63903621        2.89253631
 C           -0.59354241       -0.95929621        4.19101000
 C           -0.63880540        0.48143215        4.01000345
 C            0.02791656       -2.73082698        2.78044921
 C           -1.05669764       -1.81487859        3.10749284
 C            0.17141373       -3.12275074        1.46303590
 C            2.16583919       -1.70190487        1.28261519
 C            1.36567350       -2.70311196        0.73956650
 C            2.52930957        0.69081046        1.06759371
 C            2.47911128       -0.58663435        0.49322182
 C            2.10340436        1.75044899        0.29214625
 C            0.39808046        2.16015451        1.93050201
 C            0.87317948        2.33195123        0.62198436
 C           -1.47488232        0.99073787        3.02987903
 C           -0.97310323        2.02345805        2.13272202
 C           -1.81644314       -1.25123651        2.07760064
 C           -2.24028402        0.06643854        2.20785790
 C           -0.93439123       -2.90010623        0.56089876
 C           -1.81198520       -1.84447038        0.80990276
 C            1.01345845       -2.65545594       -0.67101321
 C           -0.38190026       -3.05499756       -0.76723802
 C            2.35716182       -0.66809742       -0.90278634
 C            1.47365069       -1.60515182       -1.46238653
 C            2.53457462        1.75695124       -1.01945219
 C            2.71815783        0.45940303       -1.64306700
 C            1.86112260        2.61758882       -1.96101568
 C           -0.01743083        2.69900932       -0.40199713
 C            0.48993184        2.98376961       -1.67184992
 C           -1.85905847        2.03079947        0.98648394
 C           -2.63860845        0.80012202        1.02722617
 C           -1.38879856        2.46805982       -0.24577724
 C           -2.43012761       -1.20931992       -0.27930946
 C           -2.85655394        0.12562217       -0.16573937
 C           -1.12727885       -2.59328294       -1.83191599
 C           -2.31204715       -1.80741638       -1.54028965
 C            0.80493199       -1.33104264       -2.66720033
 C           -0.44035860       -1.90985135       -2.90875713
 C            2.29358189        0.57408387       -3.02186351
 C            1.90188220        1.95636206       -3.25177952
 C            1.21685306       -0.27583357       -3.47713566
 C           -0.30003631        2.67482065       -2.85487974
 C            0.55326808        1.95027426       -3.78255191
 C            0.21599719        0.57699449       -4.11026609
 C           -2.16101029        2.13927056       -1.35850336
 C           -2.95999476        0.92607197       -1.30186614
 C           -1.61116354        2.25260031       -2.69734637
 C           -2.61565043       -1.05782272       -2.74620957
 C           -1.44976453       -1.14225041       -3.61582257
 C           -1.12009467        0.19824099       -4.06451168
 C           -2.97597044        0.33260523       -2.62036945
 C           -2.08645827        1.11017819       -3.46888075
