58
Modified xyz file
 C            1.65964229       -0.21105218        4.24768378
 C            0.78386268       -1.36706698        4.25994641
 C            1.23567919       -2.27452714        3.22009550
 C            2.62714233       -0.39759272        3.17986609
 C            2.32154585       -1.64075865        2.50253474
 C            2.64500630        0.81629912        2.38963733
 C            0.85579966        0.94659585        3.89981693
 C            1.56531124        1.67389815        2.86575669
 C           -0.54888864       -0.91964703        3.89030493
 C           -0.48714922        0.49384477        3.59690306
 C            0.07139502       -2.67050852        2.45742532
 C           -1.03001931       -1.80033334        2.85148063
 C            0.22152878       -2.93547226        1.09995306
 C            2.26764743       -1.63678368        1.11324769
 C            1.40094711       -2.52590261        0.46368273
 C            2.84074272        0.71823327        1.01424019
 C            2.79434523       -0.54493311        0.41027179
 C            2.52565344        1.84150145        0.25334820
 C            0.82034420        2.36191412        1.91242544
 C            1.48524604        2.72605497        0.74641078
 C           -1.07067125        0.95819951        2.42351025
 C           -0.55758681        2.12137045        1.84862709
 C           -1.83272547       -1.27979140        1.84038528
 C           -1.87866840        0.11017385        1.64708113
 C           -0.95183848       -2.98990941        0.35579566
 C           -2.03792231       -2.10764869        0.74747907
 C           -0.89430921       -3.01757882       -1.09448603
 C            1.52848071       -2.69997761       -0.91274893
 C            0.33745117       -2.90063342       -1.72430595
 C            2.93103910       -0.63981636       -0.97220349
 C            2.41794389       -1.81865187       -1.64519056
 C            2.37296354        1.72969276       -1.18782961
 C            2.61223843        0.51297040       -1.79951272
 C            0.72461517        3.20639471       -0.39127180
 C            1.20434546        2.50236873       -1.57374198
 C           -1.31466013        2.75042594        0.86922146
 C           -0.63731720        3.41009272       -0.23696513
 C           -2.50182543        0.64043005        0.50564531
 C           -2.43831037        2.02281652        0.31073092
 C           -2.63048793       -1.57098056       -0.45528973
 C           -2.03635936       -2.26589617       -1.58923196
 C           -2.88873430       -0.20859512       -0.54675336
 C           -1.95025281       -1.60915150       -2.80901532
 C            0.46328549       -2.08702994       -2.92645661
 C            1.73106981       -1.38318051       -2.85026228
 C            1.72536980        0.07054766       -2.86044503
 C           -0.64323002       -1.40186883       -3.41600062
 C            0.28308239        1.98305937       -2.48562036
 C            0.52321860        0.73980784       -3.09484595
 C           -0.52075990        0.02211105       -3.68410842
 C           -1.48891448        3.28844855       -1.40520075
 C           -2.69995419        2.59725466       -0.99344851
 C           -0.97369838        2.58837744       -2.56795462
 C           -3.20841610        0.30434670       -1.80582970
 C           -2.70977550       -0.38190745       -2.98563085
 C           -1.86470536        0.56065188       -3.70146926
 C           -3.08413255        1.72052751       -2.07417238
 C           -2.09563000        1.86878590       -3.13351559
