58
Modified xyz file
 C            1.53616772        0.04763481        4.26760740
 C            0.68444608       -1.12545380        4.35038508
 C            1.30563505       -2.18104983        3.57488724
 C            2.59249801       -0.23590505        3.30892854
 C            2.50029062       -1.63029011        2.95129760
 C            2.50766528        0.74935214        2.24602704
 C            0.73667211        1.13629300        3.73375450
 C            1.40785818        1.64128352        2.56305113
 C           -0.66552417       -0.72119929        4.00750484
 C           -0.62307327        0.67312496        3.57877530
 C           -1.46974194       -1.60722325        3.30285480
 C            0.52389674       -2.84524053        2.54129560
 C           -0.84757160       -2.64491431        2.48141710
 C            2.45496669       -1.96276154        1.54520516
 C            1.29231250       -2.80272885        1.31092967
 C            2.66575862        0.36294909        0.90920613
 C            2.76580615       -1.00201207        0.58566836
 C            2.23316753        1.26695164       -0.07441196
 C            0.64792187        2.09381295        1.50042205
 C            1.31158670        2.25401011        0.29957971
 C           -1.34462613        1.06054824        2.44658127
 C           -0.73372676        1.84783033        1.45666414
 C           -2.56636017       -1.05512253        2.53547864
 C           -2.48327312        0.33514045        2.12134743
 C           -1.49424862       -2.62712504        1.17972969
 C           -2.70446768       -1.85680943        1.33352461
 C            0.65236579       -2.69742280        0.07478986
 C           -0.72830627       -2.45462042        0.02295795
 C            2.54829037       -1.38756525       -0.73004794
 C            1.44710872       -2.30420903       -0.99358428
 C            2.39997541        0.94589351       -1.42673772
 C            2.53908935       -0.38994167       -1.77756295
 C            2.00182310        1.85389660       -2.40733477
 C            0.66818519        3.00245187       -0.66520688
 C            1.16511262        2.96982127       -2.02069411
 C           -1.42865576        2.14858294        0.26832915
 C           -0.78069864        2.93102751       -0.69754002
 C           -3.00359172        0.40153112        0.77363809
 C           -3.06383560       -0.96116488        0.26638635
 C           -2.55190047        1.38977246       -0.09642785
 C           -1.30217897       -1.83730483       -1.11058167
 C           -2.54503019       -1.18164810       -0.99734232
 C            0.83205296       -1.90370112       -2.23850057
 C            1.72534565       -0.93268867       -2.85219751
 C           -0.54074412       -1.69516980       -2.28618900
 C            1.49665770        1.35156271       -3.67757715
 C            1.22240700       -0.06935010       -3.81319893
 C            0.01975287        3.00932724       -2.91150650
 C           -1.17834587        2.86007173       -2.09513929
 C            0.27820930        2.07973613       -3.99690498
 C           -2.82648080        1.17658439       -1.44939071
 C           -2.86473360       -0.19887317       -1.91818388
 C           -2.17442342        1.97125685       -2.47066781
 C           -1.06000282       -1.01186126       -3.38748663
 C           -0.16433093       -0.21842533       -4.21834973
 C           -0.73961895        1.11172951       -4.35502180
 C           -2.27472412       -0.24878389       -3.22970520
 C           -2.00281016        1.11838887       -3.64073223
