58
Modified xyz file
 C            1.30552651       -0.10116215        3.72791698
 C            2.50557365       -0.43995771        3.00020591
 C            2.35766792       -1.79800581        2.49786261
 C            0.45861605       -1.28133767        3.75340509
 C            1.01142752       -2.24089885        2.81468281
 C           -0.91269147       -0.85017557        3.56996388
 C            0.49917828        1.00694838        3.25564403
 C           -0.89208110        0.57622964        3.26191836
 C            0.95096656        1.81601995        2.21320249
 C            2.89137444        0.39585282        1.88436916
 C            2.19605229        1.57274143        1.60535603
 C            2.79703310       -1.81364762        1.11415506
 C            3.25009754       -0.47547663        0.77724771
 C            2.05700469       -2.52342758        0.18666589
 C            0.19483470       -2.74345762        1.80125426
 C            0.74465408       -3.04064929        0.55373299
 C           -1.76542739       -1.67586981        2.85641599
 C           -1.19124126       -2.64799657        1.93185338
 C           -2.90929619       -1.07351168        2.20620216
 C           -1.77466220        1.10299729        2.31345300
 C           -2.84744814        0.33512947        1.86177634
 C            0.01051057        2.62652875        1.58209557
 C           -1.38557084        2.21828803        1.57604220
 C            0.30395805        3.23305350        0.29827710
 C            2.51904449        2.20945608        0.40775259
 C            1.58395840        3.13041358       -0.21429494
 C            3.09912847        0.01879303       -0.51769064
 C            3.10830862        1.40740834       -0.65201070
 C            1.97598335       -2.02945353       -1.17405779
 C            2.49507532       -0.78027875       -1.50536519
 C           -0.09453321       -3.00568899       -0.63571273
 C            0.68775565       -2.42801568       -1.71937399
 C           -2.03352124       -2.68633489        0.74468065
 C           -3.17096290       -1.81863261        0.98902922
 C           -1.44606609       -2.69766786       -0.51917846
 C           -3.29920525        0.46936120        0.48342322
 C           -3.54767045       -0.87108403       -0.03820529
 C           -1.89830945        2.40672673        0.22637360
 C           -0.84263247        3.01119893       -0.57386527
 C           -2.72775230        1.44317341       -0.33814148
 C           -0.65350215        2.60554176       -1.89545717
 C            1.75763833        3.03490471       -1.65258701
 C            2.77395067        2.02675593       -1.91577968
 C            0.60630809        2.72709234       -2.48239761
 C            2.09772302       -0.22643381       -2.72221857
 C            2.29853525        1.18437488       -2.98762708
 C            1.03267888        1.72953323       -3.44709379
 C            0.06524773       -1.61678792       -2.66458292
 C            0.80573196       -0.60219336       -3.27965488
 C            0.14460070        0.61930363       -3.72774373
 C           -2.10263849       -2.09293169       -1.59298078
 C           -3.19361443       -1.15504112       -1.34646819
 C           -1.32787116       -1.59004703       -2.71939706
 C           -2.71329034        1.25964345       -1.71968811
 C           -1.61717074        1.80390936       -2.50871995
 C           -1.20564744        0.78288598       -3.46668807
 C           -3.03537526       -0.04670952       -2.26382245
 C           -1.99796289       -0.40139047       -3.21415474
