58
Modified xyz file
 C            1.54750763       -0.12090062        4.29532007
 C            0.72866377       -1.30565363        4.11393944
 C            1.56249171       -2.30709884        3.48554522
 C            2.72558021       -0.27485965        3.45684514
 C            2.74047065       -1.63101900        2.95748709
 C            2.71788521        0.80560176        2.49515354
 C            0.79647684        1.01897020        3.79481588
 C            1.61551495        1.69639905        2.82158984
 C           -0.50335117       -0.89775339        3.45508609
 C           -0.49481288        0.55227866        3.35931439
 C           -1.00964678       -1.63150483        2.37666284
 C            0.99570618       -3.08832692        2.40922197
 C           -0.34129457       -2.77506986        1.92945401
 C            2.75888752       -1.84249263        1.51880329
 C            1.88821688       -2.96820499        1.26735700
 C            2.95591251        0.54193644        1.14742118
 C            2.70841413       -0.74737345        0.65032960
 C            2.79669918        1.62496003        0.29449244
 C            0.99952972        2.34661948        1.75769370
 C            1.83734616        2.64281092        0.69217183
 C           -1.05812680        1.11987502        2.22754381
 C           -0.36286328        2.09716458        1.49223324
 C           -1.89665832       -0.99793862        1.49929608
 C           -2.04626737        0.39039129        1.58888679
 C           -2.23453095       -1.64301136        0.30546403
 C           -0.32236117       -3.05453286        0.50636963
 C            1.05885267       -2.93559164        0.08453388
 C           -1.28055181       -2.45849875       -0.29959846
 C            2.15597459       -0.91075534       -0.63471773
 C            1.33489556       -2.01662738       -0.91590131
 C            2.61418820        1.40020276       -1.12271979
 C            2.24215278        0.13525362       -1.56528506
 C            1.27943512        3.22103742       -0.50365092
 C            1.90982275        2.56279185       -1.63470703
 C           -0.94800661        2.58549688        0.30494146
 C           -0.15041127        3.14729642       -0.69200747
 C           -2.83197983        1.05587350        0.66623840
 C           -2.23149097        2.16553194       -0.05048272
 C           -3.24370667       -1.10236904       -0.48887607
 C           -3.61753851        0.28044937       -0.27168458
 C           -3.19347981       -1.31698337       -1.92740622
 C           -0.94442046       -2.20480153       -1.62873095
 C            0.39323237       -1.90840433       -1.93344592
 C           -1.97232690       -1.85293647       -2.49980755
 C            1.59086739        0.02046668       -2.79837910
 C            0.71364400       -1.11030321       -3.02152052
 C            0.89639076        2.36128468       -2.64712246
 C           -0.38210902        2.78166031       -2.08212404
 C            0.94432504        1.19146101       -3.38515499
 C           -2.56182853        2.00182882       -1.46071284
 C           -3.57678387        0.96410359       -1.55240911
 C           -3.46696562       -0.04575220       -2.58267543
 C           -1.54707896        2.09150934       -2.41637638
 C           -1.68449352       -1.08385414       -3.69367833
 C           -0.31467185       -0.70047260       -3.95665039
 C           -0.27329008        0.74942022       -4.03382734
 C           -2.47588658        0.13494817       -3.62283912
 C           -1.54215035        1.24546663       -3.53172008
