58
Modified xyz file
 C            1.32121991        0.02488214        4.17993598
 C            2.52732382        0.06172609        3.37450125
 C            2.60539431       -1.20350425        2.66679134
 C            0.54124168       -1.12784914        3.74864732
 C            1.30274116       -1.82659631        2.73370512
 C           -0.78915424       -0.66635970        3.41689029
 C            0.44531221        1.17964517        4.18411422
 C           -0.88812215        0.72145474        3.83029045
 C            0.76520270        2.31033862        3.32990024
 C            2.71265320        1.12507261        2.39459813
 C            1.82275893        2.18918722        2.33687766
 C            3.14540283       -0.93644975        1.35196447
 C            3.15008809        0.50637430        1.15810169
 C            2.71295559       -1.71001781        0.28378622
 C            0.69035729       -2.16381752        1.53162614
 C            1.49894088       -2.40605434        0.41929614
 C           -1.34861005       -1.02342206        2.19565012
 C           -0.67682542       -1.91207754        1.34477017
 C           -2.32252947       -0.18804884        1.66019876
 C           -1.45501446        1.67555582        2.89277626
 C           -0.44971773        2.68987896        2.63342399
 C           -2.17044325        1.19268159        1.80353970
 C            1.28228975        2.59487697        1.04715510
 C           -0.10792559        2.96648338        1.24826642
 C            2.71582919        1.00316980       -0.07312801
 C            1.63655746        1.89684491       -0.11132695
 C            3.06948534       -1.22892339       -0.96886185
 C            2.96981923        0.20476853       -1.18318693
 C            2.59175628       -1.90199685       -2.15523258
 C            0.91325027       -3.00774975       -0.69036752
 C            1.52677349       -2.86542833       -1.99988832
 C           -1.28814050       -2.29415658        0.14115512
 C           -0.52531318       -2.90051251       -0.85741484
 C           -3.07242588       -0.66173221        0.59394397
 C           -2.51766127       -1.73579331       -0.21259248
 C           -3.67952693        0.30488382       -0.30605552
 C           -2.20083261        1.97569524        0.65298493
 C           -1.02228536        2.61788718        0.26585763
 C           -3.13588266        1.65033947       -0.32301347
 C            0.74139816        1.87989141       -1.19550308
 C           -0.54732039        2.41178733       -1.02440005
 C            2.21564354        0.40586748       -2.40183427
 C            2.14172889       -0.87912303       -3.08379326
 C            1.08950674        1.21808968       -2.38334027
 C            0.48251465       -2.52988447       -2.95263514
 C           -0.79015672       -2.57170523       -2.25256859
 C            0.86668323       -1.30585674       -3.63359641
 C           -2.77731151       -1.42149038       -1.61074902
 C           -3.60525063       -0.22775425       -1.65468419
 C           -1.76317801       -1.62106869       -2.54699457
 C           -2.84697613        1.98974601       -1.70546335
 C           -1.48374149        2.34770192       -2.05019163
 C           -3.23346077        0.85858714       -2.53507493
 C            0.13411749        1.01096257       -3.37586205
 C           -0.10663364       -0.34311199       -3.85081225
 C           -1.48756293       -0.64687930       -3.51515758
 C           -1.15511753        1.65682907       -3.27462346
 C           -2.17182583        0.63615512       -3.49239627
