58
Modified xyz file
 C            1.37358376       -0.14102706        4.74732440
 C            0.54389732       -1.32159700        4.60144395
 C            1.20750995       -2.20262752        3.66199862
 C            2.50158719       -0.27108911        3.83549171
 C            2.29612484       -1.46515256        3.04348433
 C            2.64065053        0.98775222        3.14967172
 C            0.59572886        0.99718977        4.29581915
 C            1.48330491        1.80744984        3.49478671
 C           -0.70746438       -0.91809224        3.98063540
 C           -0.62086631        0.49549555        3.67640454
 C            0.18401893       -2.73215325        2.78926183
 C           -0.96163660       -1.83589556        2.88655884
 C            0.58013476       -3.10947053        1.52015361
 C            2.34828890       -1.41403770        1.64420409
 C            1.76916530       -2.47582369        0.95709347
 C            2.73839705        0.98605202        1.70134607
 C            2.54941069       -0.19235280        0.97369356
 C            0.97580510        2.34346244        2.25102830
 C            2.02358044        2.16609952        1.27169655
 C           -0.95644872        0.91916315        2.38942424
 C           -0.32244106        2.04270327        1.84403024
 C           -1.51085282       -1.33957885        1.70360613
 C           -1.64342537        0.04372156        1.53628618
 C           -0.40986574       -3.07049220        0.47047373
 C           -1.44967299       -2.14565049        0.56725113
 C            1.56528605       -2.38429362       -0.47683655
 C            0.34815693       -3.12476886       -0.75890813
 C            2.21980421       -0.06268659       -0.38946584
 C            1.77384561       -1.17141720       -1.12568814
 C            1.63389245        2.23780727       -0.04941043
 C            2.04958540        1.22794829       -0.91126561
 C           -0.65645726        2.41473807        0.54399747
 C            0.39071185        2.80216244       -0.29530558
 C           -2.10877026        0.53073161        0.31445418
 C           -1.78400150        1.84317080       -0.03581741
 C           -2.03946845       -1.69985979       -0.61464588
 C           -2.49342265       -0.37705086       -0.67933699
 C           -0.32956925       -2.84089046       -1.92474982
 C           -1.69095424       -2.36661020       -1.79187550
 C            1.20290088       -0.99158288       -2.39343836
 C            0.28880037       -1.93452874       -2.86892733
 C            1.75094802        1.39140255       -2.26128532
 C            1.30255425        0.24428588       -3.02598135
 C            0.10681651        3.14878703       -1.60793457
 C            0.91646524        2.52594800       -2.64114049
 C           -2.22541377        2.36469233       -1.24764349
 C           -1.27611078        3.11747749       -2.04680564
 C           -3.07267538        0.10305614       -1.85483159
 C           -2.98433564        1.52003489       -2.14806463
 C           -2.03952123       -1.79997367       -3.07778493
 C           -0.78196363       -1.51666320       -3.76063312
 C           -2.84062063       -0.59853772       -3.10409396
 C            0.25262606        0.69089373       -3.93880319
 C            0.03271000        2.10952337       -3.71431838
 C           -1.30327082        2.58701988       -3.39877443
 C           -2.41921240        1.66541484       -3.48413171
 C           -0.82716726       -0.14229375       -4.21412706
 C           -2.19068323        0.33201413       -4.00959475
