58
Modified xyz file
 C            1.47471830        0.00989926        4.35019587
 C            0.63928545       -1.17611670        4.35263231
 C            1.28571463       -2.17844814        3.52777703
 C            2.56246675       -0.21696716        3.41258885
 C            2.46224358       -1.57019400        2.92308002
 C            2.52923921        0.85268508        2.44229844
 C            0.67466171        1.11461167        3.84323946
 C            1.38548792        1.70120056        2.73899899
 C           -0.70858664       -0.76735135        4.00816685
 C           -0.65982006        0.63150976        3.59475849
 C           -1.50291945       -1.64093835        3.27867454
 C            0.51522918       -2.80871816        2.46831147
 C           -0.86524916       -2.65646482        2.44135035
 C            2.38396741       -1.77603647        1.48766052
 C            1.26107154       -2.65757698        1.23183449
 C            2.79410721        0.58768746        1.10065321
 C            2.60494440       -0.71463858        0.60208006
 C            2.56768832        1.65567919        0.24424633
 C            0.67164124        2.20312697        1.65662604
 C            1.44756515        2.53026515        0.55713481
 C           -1.32197243        1.01951233        2.42688281
 C           -0.65401058        1.77628989        1.44052107
 C           -2.58693910       -1.06974261        2.50688711
 C           -2.46979679        0.31596311        2.08723110
 C           -1.54357953       -2.65907360        1.15576297
 C           -2.74355205       -1.87331290        1.30878927
 C            0.59029410       -2.50524676        0.02585780
 C           -0.81004239       -2.50704080       -0.01917117
 C            2.19341010       -0.88724368       -0.72981249
 C            1.28473109       -1.91599120       -1.02123834
 C            2.55328870        1.43692688       -1.18366983
 C            2.40817045        0.14123129       -1.65651345
 C            0.81126500        2.88544796       -0.68483761
 C            1.72554419        2.49031148       -1.74436190
 C           -1.25580522        1.97559161        0.17452358
 C           -0.54774893        2.65408135       -0.83998565
 C           -2.97290119        0.38791676        0.73922344
 C           -3.09167510       -0.97293572        0.23432506
 C           -2.47881148        1.34788117       -0.12915464
 C           -1.45422821       -2.02651797       -1.17217920
 C           -2.59904503       -1.22031792       -1.04239272
 C            0.71964580       -2.00787770       -2.28218982
 C           -0.72892287       -2.01271642       -2.36643406
 C            2.04443328       -0.03542372       -2.99054083
 C            1.23855974       -1.18236951       -3.34889164
 C            1.23063010        2.33542636       -3.02944132
 C            1.53832312        1.10580137       -3.74190450
 C           -1.07065519        2.75399431       -2.13042133
 C           -0.16699216        2.65094133       -3.26944722
 C           -2.82862847        1.16040680       -1.46012315
 C           -2.82100796       -0.20232399       -1.96538206
 C           -2.26268346        2.01695949       -2.46863433
 C           -1.10640752       -1.11484100       -3.44607409
 C            0.11125278       -0.71579510       -4.13844723
 C            0.34136687        0.68346892       -4.45178479
 C           -0.70399168        1.65162323       -4.18037494
 C           -2.12782794       -0.19867465       -3.23693106
 C           -1.96714673        1.19445520       -3.63197299
