58
Modified xyz file
 C            1.44964201       -0.12592392        4.60214010
 C            0.54821913       -1.24549213        4.79928192
 C            1.11238798       -2.39549970        4.11113432
 C            2.50951096       -0.56084227        3.70780807
 C            2.28193419       -1.94856837        3.37576635
 C            2.57090145        0.38852245        2.61810722
 C            0.71223119        0.92543629        3.91943548
 C            1.51573990        1.36504954        2.79962092
 C           -0.70989613       -0.91534053        4.15140675
 C           -0.62101053        0.43988571        3.63447491
 C            0.13844956       -2.84702049        3.13470886
 C           -1.02133278       -1.97738341        3.21432374
 C            2.08809393       -2.29402685        1.97667704
 C            0.80528834       -2.95930523        1.84479322
 C            2.77630719       -0.06545348        1.32211048
 C            2.44463386       -1.38858021        0.98433428
 C            2.64306842        0.88387288        0.31896883
 C            0.87003656        1.79971844        1.64668923
 C            1.62244700        1.83546924        0.47341784
 C           -1.15164076        0.69101937        2.37191512
 C           -0.51125587        1.60504707        1.52895072
 C           -1.61925764       -1.62892980        2.01313019
 C           -1.94957593       -0.29077292        1.78806790
 C            0.04557259       -2.70131019        0.70208063
 C           -1.29931911       -2.39526521        0.89976145
 C            1.96314708       -1.63231979       -0.30462326
 C            0.68107811       -2.18373205       -0.43916732
 C            2.96520408        0.45989863       -0.95856349
 C            2.48356473       -0.85388489       -1.33139055
 C            2.71864201        1.35467039       -2.06324722
 C            1.03991933        2.40630671       -0.65837926
 C            1.77866662        2.42694811       -1.84229875
 C           -1.11366743        1.89137042        0.30347860
 C           -0.35612068        2.50892519       -0.69754539
 C           -2.59461815        0.00926523        0.58983160
 C           -2.29567913        1.22374329       -0.03787934
 C           -2.10044083       -2.22483620       -0.21172472
 C           -2.97855319       -1.07640331       -0.19683753
 C           -0.10819769       -1.87661381       -1.56183173
 C           -1.46139835       -2.19540873       -1.50946242
 C            1.72588916       -0.69011420       -2.55562427
 C            2.18514815        0.55148862       -3.14806407
 C            0.36748212       -0.99248619       -2.54344582
 C            1.11234104        2.63193345       -3.11072038
 C            1.23198700        1.37953605       -3.84947508
 C           -0.99811241        2.98273633       -1.84099344
 C           -0.28711997        2.99829143       -3.10436345
 C           -2.95492580        1.55933982       -1.22164197
 C           -2.33935672        2.51059349       -2.13130314
 C           -3.38564234       -0.86393390       -1.56855334
 C           -2.39291870       -1.53507547       -2.40157717
 C           -3.50871507        0.49683329       -2.04131256
 C           -0.52175516       -0.29037212       -3.38496542
 C           -0.11217816        0.88093018       -4.03210178
 C           -0.96676186        2.05366195       -3.97094016
 C           -2.31113378        1.89936975       -3.45683475
 C           -1.88894744       -0.55858339       -3.33868585
 C           -2.82800209        0.55361542       -3.31886213
