58
Modified xyz file
 C            1.49907296        0.11667739        3.99898159
 C            0.69325836       -1.08465307        3.90376929
 C            1.28337947       -1.95490450        2.90075560
 C            2.60362573       -0.01814137        3.06859392
 C            2.45775134       -1.27982431        2.36383498
 C            2.65843414        1.19597141        2.28463431
 C            0.67916468        1.22742350        3.54354905
 C            1.38370533        1.87664306        2.46003153
 C           -0.68177588       -0.67088038        3.71918653
 C           -0.65227369        0.71973905        3.28984703
 C           -1.52513004       -1.53954679        3.04783986
 C            0.43405572       -2.64322440        2.03635654
 C           -0.93671422       -2.64875570        2.30651315
 C            0.89244545       -2.96560683        0.75807997
 C            2.70067090       -1.31565178        0.99127591
 C            2.05917464       -2.28026136        0.22132429
 C            3.17252607        1.11030155        1.00140515
 C            3.26340092       -0.20105019        0.36568099
 C            2.66138652        2.02206934       -0.00296051
 C            0.67861020        2.26481657        1.32436755
 C            1.41212368        2.60840159        0.19086800
 C           -1.30181885        1.07143517        2.10767466
 C           -0.68117978        1.93862453        1.19158028
 C           -2.55741519       -0.97957700        2.19776364
 C           -2.40982584        0.31900194        1.71136148
 C           -1.87927724       -3.01299171        1.26140658
 C           -2.94939898       -2.02939595        1.27747170
 C           -0.04491077       -3.17603113       -0.33953637
 C           -1.40758564       -3.13377748       -0.10349923
 C            1.82936369       -2.04910189       -1.19754092
 C            0.49029356       -2.51841725       -1.51650403
 C            3.08857400       -0.00318077       -1.06959965
 C            2.97542659        1.43349241       -1.29129473
 C            2.29745423       -0.88787495       -1.80339480
 C            2.31160314        1.90394436       -2.41444278
 C            0.74865423        3.14421259       -0.90281191
 C            1.29783873        2.92972338       -2.23302536
 C           -1.37533127        2.34243821        0.04367192
 C           -0.69246971        2.99957582       -0.98320001
 C           -3.11504988        0.69106527        0.57160955
 C           -2.63437292        1.80680495       -0.22080460
 C           -3.24392009       -1.66060044       -0.09145042
 C           -2.24834706       -2.29840060       -0.94586759
 C           -3.58552286       -0.34164259       -0.34770263
 C           -0.33043047       -1.72967488       -2.32082733
 C           -1.68833968       -1.57595394       -2.00469668
 C            1.66167804       -0.44518373       -2.96197496
 C            1.79894867        0.94146486       -3.37043826
 C            0.28605249       -0.85235975       -3.21294045
 C            0.19663465        2.64197946       -3.13445283
 C           -1.03612496        2.72370959       -2.37378279
 C            0.50013630        1.40625689       -3.82966376
 C           -0.43636642        0.29957365       -3.72621183
 C           -3.01881604        1.55234951       -1.59779163
 C           -3.39509624        0.15467253       -1.69397346
 C           -2.41001446       -0.50247637       -2.53124734
 C           -2.05199525        1.81753273       -2.64392324
 C           -1.72594100        0.53923980       -3.27387496
