58
Modified xyz file
 C            1.13697150       -0.09113671        4.01482024
 C            2.32382812       -0.41135554        3.25707367
 C            2.17989658       -1.77149159        2.76435289
 C            0.26692359       -1.25851598        3.98735522
 C            0.80535724       -2.17674237        3.00334474
 C           -1.08983737       -0.79000621        3.82688636
 C            0.34173439        1.05121260        3.61047360
 C           -1.05046553        0.66124287        3.75054034
 C            0.71303831        1.81646385        2.50233185
 C            2.66811206        0.42214252        2.12529556
 C            1.92064258        1.56183859        1.82776088
 C            2.68959808       -1.80883497        1.40387468
 C            3.06854816       -0.45428137        1.03535514
 C            2.02477573       -2.58930108        0.47483888
 C            0.02753056       -2.58374754        1.91633918
 C            0.69047885       -3.07738197        0.79099588
 C           -1.85432374       -1.26114434        2.69209182
 C           -1.33159232       -2.23089074        1.83607620
 C           -1.99531789        1.08098891        2.72881886
 C           -2.53780605       -0.11727984        2.10934397
 C           -0.27180420        2.60330693        1.90170255
 C           -1.65548983        2.15072810        1.92119735
 C           -0.03681874        3.22238231        0.61034618
 C            2.17348535        2.17114045        0.59992735
 C            1.19808205        3.06576248        0.00273555
 C            2.88990728       -0.00694063       -0.27398313
 C            2.75007913        1.36700543       -0.46665906
 C            2.01647226       -2.17248560       -0.91365351
 C            2.45590534       -0.89826533       -1.26643326
 C           -0.01918929       -3.25687222       -0.46117899
 C            0.80542617       -2.69645140       -1.52526269
 C           -2.04050816       -2.46410326        0.65773620
 C           -1.38907602       -3.07702386       -0.48631581
 C           -2.81629852       -0.14642848        0.74221487
 C           -2.90097470       -1.40447909        0.15476692
 C           -2.12506265        2.16606023        0.55106694
 C           -1.25574271        3.07343083       -0.17386184
 C           -2.53504130        0.97736688       -0.05441499
 C           -1.17847201        2.95724449       -1.55224454
 C            1.27766984        2.91709291       -1.44258101
 C            2.26745309        1.88521410       -1.73244164
 C            0.11869032        3.01169106       -2.20739392
 C            2.11403066       -0.42247953       -2.53191365
 C            2.07480002        1.00676773       -2.78828294
 C            0.22486452       -1.99258883       -2.58009659
 C            0.99312113       -1.03192154       -3.23467484
 C           -2.00591808       -2.54470213       -1.68633840
 C           -2.96164531       -1.52303572       -1.28281429
 C           -1.16414981       -1.97041884       -2.72262896
 C           -2.50170758        0.87999491       -1.45575249
 C           -1.95413235        1.92005290       -2.20858446
 C           -2.71010190       -0.34629297       -2.08312227
 C           -1.82594964       -0.75171285       -3.16436208
 C            0.01395638        2.26291710       -3.44802129
 C            1.01829526        1.26190072       -3.75241684
 C            0.33434334        0.00518620       -4.01083197
 C           -1.28651353        1.61081618       -3.46351544
 C           -1.09007864        0.21836127       -3.82988301
