58
Modified xyz file
 C            1.18202901       -0.01386133        4.66375216
 C            0.37829669       -1.17097731        4.30742052
 C            1.21323984       -2.07326198        3.55401302
 C            2.44214996       -0.11403145        3.94570588
 C            2.45316815       -1.37849888        3.23937073
 C            2.60746841        1.10323382        3.18337583
 C            0.49301028        1.17418512        4.18392254
 C            1.42309040        1.92982523        3.38586242
 C           -0.83826188       -0.69412793        3.68182644
 C           -0.74438920        0.75378371        3.56541015
 C           -1.39722650       -1.39534317        2.61334461
 C            0.68790328       -2.59820354        2.31182622
 C           -0.65293984       -2.40794927        1.97622551
 C            2.60770490       -1.39119482        1.78972874
 C            1.68908722       -2.38455869        1.27873323
 C            2.82357130        1.02140825        1.74898907
 C            2.76423012       -0.20510739        1.07817024
 C            0.99534928        2.39003088        2.07651297
 C            2.10519615        2.14337865        1.18092717
 C           -1.18099400        1.34788541        2.37898597
 C           -0.29639001        2.12413547        1.60588263
 C           -2.38147555       -0.71630628        1.89729489
 C           -2.25224399        0.72615223        1.75424021
 C           -2.87590349       -1.24355765        0.64208383
 C           -1.01674664       -2.82563293        0.69796682
 C           -2.23221964       -2.33158703        0.07847552
 C            1.25181682       -2.29224714       -0.03785793
 C            0.01615910       -2.85419221       -0.32718400
 C            2.43983941       -0.18657943       -0.28146106
 C            1.72089648       -1.25265074       -0.84861967
 C            1.82707938        2.10291455       -0.16886509
 C            2.37780305        1.05916924       -0.90120471
 C           -0.51779726        2.28943200        0.22514031
 C            0.58969906        2.58177958       -0.57941283
 C           -2.58740174        1.06420104        0.38990786
 C           -3.22535382       -0.10326858       -0.19297446
 C           -1.68776812        1.79892102       -0.37222021
 C           -3.21634867       -0.23744473       -1.57252091
 C           -2.03350035       -2.37305075       -1.36024704
 C           -0.61078750       -2.57714744       -1.60018241
 C           -2.71936465       -1.47328671       -2.16517975
 C            1.22990196       -1.11874566       -2.15760390
 C            0.04217167       -1.77524783       -2.53095562
 C            2.22596609        1.10888213       -2.27755198
 C            1.74317255       -0.08483680       -2.94446311
 C            0.42038681        2.76975774       -1.94448049
 C            1.45250005        2.21774756       -2.80503557
 C           -1.80256797        1.76679010       -1.76730789
 C           -2.68181598        0.85548544       -2.36463140
 C           -0.85546763        2.43265639       -2.54328815
 C           -2.13137895       -1.12626482       -3.44740078
 C           -0.70641668       -1.33575495       -3.62563576
 C           -2.37265409        0.28820566       -3.66513771
 C            1.04540366        0.34670915       -4.14363875
 C            0.83528765        1.78142659       -4.04009738
 C           -0.59322524        2.00008372       -3.91074930
 C           -0.23197513       -0.24840548       -4.45412982
 C           -1.24096420        0.80514223       -4.40505780
