58
Modified xyz file
 C            1.13409012       -0.16740431        3.90366042
 C            2.37286634       -0.45274820        3.21565998
 C            2.20191880       -1.70791663        2.49290377
 C            0.28944244       -1.33935553        3.75936180
 C            0.82294207       -2.11466356        2.65277835
 C           -1.07612594       -0.86865659        3.67289581
 C            0.35174631        0.97725296        3.47266965
 C           -1.03804715        0.58429250        3.57409927
 C            0.76779098        1.71012921        2.36088438
 C            2.86758214        0.51561852        2.26057610
 C            2.11340220        1.65078853        1.96380212
 C            2.72071711       -1.51014231        1.15339604
 C            3.43235692       -0.24477141        1.16287302
 C            1.92519647       -1.81976627        0.05449688
 C            0.03376379       -2.30882192        1.52020702
 C            0.62308166       -2.31376758        0.24484542
 C           -1.89745752       -1.34725623        2.58031101
 C           -1.35748548       -2.22156855        1.64301666
 C           -1.94791172        0.97345683        2.51501237
 C           -2.66557595       -0.21871459        2.09077024
 C           -0.19321129        2.31134942        1.53050692
 C           -1.52402285        1.87211848        1.54655751
 C            0.21248335        3.17951926        0.52075349
 C            2.55997617        2.45012433        0.91606467
 C            1.62368205        3.31366343        0.22742000
 C            3.64181289        0.40946460       -0.04175120
 C            3.42022197        1.84747491       -0.08937942
 C            2.30454368       -1.32105554       -1.19457192
 C            3.07598942       -0.15902055       -1.25559185
 C            1.53061741       -1.62860619       -2.30696564
 C           -0.14747825       -2.67348881       -0.86483481
 C            0.36867629       -2.47713465       -2.14490287
 C           -2.14450672       -2.50159175        0.53695256
 C           -1.50807726       -2.92411755       -0.69239752
 C           -3.16613610       -0.28796367        0.79096489
 C           -3.17583238       -1.53949427        0.17451016
 C           -2.29995767        1.98603545        0.39665227
 C           -3.14595972        0.86680313        0.00279229
 C           -0.48386469        3.15320226       -0.75295062
 C           -1.73582140        2.56792461       -0.81073552
 C            1.79630403        3.11305894       -1.20575675
 C            2.87844991        2.17817466       -1.39659122
 C            2.59903319        0.93638248       -2.08349037
 C            0.49540927        2.78923585       -1.75969102
 C            1.14378842       -0.53766775       -3.18999494
 C            1.39682912        0.75966824       -2.76189128
 C            0.30809370        1.61235225       -2.49218154
 C           -0.52008290       -2.17238776       -3.25609630
 C           -0.14590443       -0.85977279       -3.75500153
 C           -2.45052154       -2.63505970       -1.76273590
 C           -3.38785033       -1.64427444       -1.25782098
 C           -1.95017592       -2.15943017       -3.03416775
 C           -3.09416357        0.77388017       -1.45238203
 C           -2.03822010        1.66494726       -1.90741266
 C           -1.00517670        1.16484190       -2.70149542
 C           -1.24381344        0.03777308       -3.48366875
 C           -3.25990150       -0.45483378       -2.07614587
 C           -2.40952572       -0.78808022       -3.20678940
