58
Modified xyz file
 C            1.45044775        0.09415482        4.14165474
 C            0.64446929       -1.09780854        3.95885487
 C            1.45608237       -2.06740194        3.25951885
 C            2.63810598       -0.04850596        3.31444124
 C            2.64439174       -1.38631120        2.76858196
 C            2.66084070        1.06296264        2.38983967
 C            0.69139523        1.22365006        3.63218126
 C            1.52954777        1.92689235        2.68733996
 C           -0.61605633       -0.70056152        3.35582145
 C           -0.58733414        0.73942970        3.16051633
 C           -1.17269041       -1.48399117        2.34861750
 C            0.85916287       -2.75412392        2.13628376
 C           -0.50764515       -2.64427481        1.91378898
 C            2.68028459       -1.54815623        1.32326039
 C            1.73649531       -2.59677748        0.98904787
 C            2.96752746        0.84631829        1.04932464
 C            2.75628116       -0.43083896        0.49572239
 C            2.83461099        1.95865405        0.22733260
 C            0.92645037        2.57180994        1.61235666
 C            1.75764165        2.88439767        0.53865933
 C           -1.08534691        1.25745058        1.96817622
 C           -0.43421545        2.34034090        1.36334463
 C           -2.10662137       -0.88155736        1.50380672
 C           -1.98240517        0.48764676        1.22028145
 C           -2.87704247       -1.70324333        0.69053239
 C           -0.96895468       -3.26942989        0.76245759
 C           -2.30689100       -2.97098294        0.29669269
 C            1.15129482       -2.61568043       -0.27568634
 C           -0.08481925       -3.25927140       -0.39411508
 C            2.32770625       -0.55991717       -0.83133518
 C            1.49955302       -1.62835237       -1.20601821
 C            2.87108970        1.78461573       -1.20716295
 C            2.57312445        0.47298999       -1.73301059
 C            1.18429469        3.34717267       -0.71079647
 C            1.93013657        2.72464361       -1.79460901
 C           -1.02938994        2.93726926        0.25660790
 C           -0.19390362        3.46335859       -0.81415769
 C           -2.60149006        1.05124839        0.09612943
 C           -2.18612214        2.30254634       -0.35245572
 C           -3.53508748       -1.14725018       -0.47037853
 C           -3.31180686        0.24447251       -0.79067927
 C           -2.29206417       -3.01533134       -1.15530569
 C           -0.90357042       -3.06687137       -1.58041324
 C           -3.13811077       -1.93722161       -1.62880036
 C            0.85023551       -1.59733178       -2.44178390
 C           -0.45550071       -2.21525051       -2.58082174
 C            1.69475087        0.65517199       -2.87528896
 C            1.21039798        2.02844370       -2.84914975
 C            0.83542883       -0.37395278       -3.22511520
 C           -0.83415581        3.14583882       -2.07951723
 C           -2.11981005        2.54134025       -1.78524024
 C           -0.14375952        2.28978783       -3.03126585
 C           -3.01019660        0.31755880       -2.21197684
 C           -2.62114530       -1.01852279       -2.62756775
 C           -1.35451206       -1.22541028       -3.16644270
 C           -0.54968427       -0.08033499       -3.56420246
 C           -2.30376004        1.41560563       -2.68368212
 C           -1.04765575        1.20889239       -3.39419441
