58
Modified xyz file
 C            1.27821787       -0.06401362        3.83725651
 C            2.53866916       -0.24504535        3.14311931
 C            2.56024103       -1.59790506        2.62022016
 C            0.45198773       -1.23482995        3.57418993
 C            1.22743969       -2.15889377        2.77286344
 C           -0.81542226       -0.76947764        3.05526126
 C            0.47905335        1.11185217        3.54198998
 C           -0.88253268        0.65766962        3.31034780
 C            1.00998808        2.11488034        2.73598721
 C            2.87745247        0.65262819        2.05259250
 C            2.18820541        1.84800892        1.91543423
 C            3.13070753       -1.55023939        1.28442842
 C            3.12334395       -0.15613334        0.86829481
 C            2.70836851       -2.50672499        0.37590035
 C            0.64570422       -2.76021688        1.65995999
 C            1.52213133       -3.27642920        0.70686258
 C           -1.26544464       -1.26249585        1.83369482
 C           -0.65270423       -2.38684756        1.27039799
 C           -2.19221468       -0.51703051        1.09290895
 C           -1.73480863        1.42624484        2.53249711
 C           -2.54259461        0.76243824        1.52533035
 C            0.11142435        2.94787002        1.95087433
 C           -1.25186973        2.66789046        1.94478861
 C            1.90346331        2.33820205        0.58146991
 C            0.78788010        3.25730680        0.69942617
 C            2.53379283        0.19538456       -0.35054687
 C            1.95680015        1.46479316       -0.50514902
 C            2.55421352       -2.12575753       -1.01402125
 C            2.36715725       -0.78305235       -1.33749150
 C            1.00611270       -3.81814795       -0.53295511
 C            1.68752576       -3.12573406       -1.61782784
 C           -1.23320409       -2.96537577        0.14470944
 C           -0.41539001       -3.73503550       -0.77644280
 C           -2.61728663       -0.95988446       -0.16499687
 C           -2.15491624       -2.17836801       -0.65260526
 C           -3.10799021       -0.03847965       -1.09261812
 C           -2.91789777        1.76841825        0.55100671
 C           -2.02747499        2.91002881        0.73746050
 C           -3.27121425        1.35936294       -0.72709965
 C            0.04025556        3.53523384       -0.43429466
 C           -1.41190885        3.50207019       -0.36158015
 C            1.25907996        1.79154656       -1.67262702
 C            0.41974938        2.90619170       -1.68685026
 C            1.70794656       -0.46709874       -2.52116767
 C            1.16073812        0.86302360       -2.70317500
 C            0.68355627       -2.69911884       -2.57569390
 C           -0.60192742       -3.17848026       -2.10600639
 C           -1.71112107       -2.24573139       -2.03780688
 C            0.76085733       -1.41527423       -3.09623435
 C           -2.60737011       -0.09004163       -2.45747513
 C           -0.09284278        0.72487311       -3.43340910
 C           -1.66802002       -1.06588114       -2.77503363
 C           -0.46485766       -0.68176384       -3.37863173
 C           -2.89128386        2.16851099       -1.87296747
 C           -1.90674111        3.21836667       -1.69794226
 C           -0.76026924        2.89683837       -2.53483174
 C           -2.40917283        1.27434665       -2.91319433
 C           -1.07358290        1.69552736       -3.28859740
