58
Modified xyz file
 C            1.23473183       -0.12667811        3.64632603
 C            2.48398531       -0.50005006        3.02425293
 C            2.40178457       -1.90188504        2.64768707
 C            0.38807373       -1.30908780        3.69389578
 C            1.07466805       -2.38169163        3.00134806
 C           -0.93751209       -0.91760912        3.25164566
 C            0.45890637        0.94969949        3.05471542
 C           -0.92651311        0.52543837        3.04851832
 C            0.94842327        1.64095316        1.94997552
 C            2.91622179        0.24181523        1.86051302
 C            2.25928612        1.41062450        1.49329375
 C            2.86935590       -2.02661111        1.27324189
 C            3.25584410       -0.70517364        0.81168305
 C            2.20735975       -2.87771733        0.40508715
 C            0.36878804       -3.15839173        2.09237341
 C            1.02381361       -3.58599849        0.86684097
 C           -1.64174581       -1.72090219        2.35380851
 C           -1.01097013       -2.82048070        1.76296207
 C           -2.72762551       -1.15267281        1.69144061
 C           -1.80038932        1.06553678        2.11243803
 C           -2.90011557        0.28595323        1.76230302
 C            0.03603182        2.33663747        1.14879543
 C           -1.33321789        2.04480657        1.22263195
 C            0.50660674        3.18318781        0.14779449
 C            2.65692990        1.96362190        0.28328433
 C            1.87138450        3.02753987       -0.30025713
 C            3.04309955       -0.32144967       -0.51479105
 C            3.04758370        1.05072717       -0.78107330
 C            1.96090842       -2.44640165       -0.95835905
 C            2.41812548       -1.20641673       -1.40882773
 C            0.03913025       -3.55991114       -0.20227435
 C           -1.20014136       -3.06187241        0.33840534
 C            0.61490425       -2.86295812       -1.32354610
 C           -2.96986387       -1.51855014        0.30567269
 C           -1.95297431       -2.15178855       -0.39342969
 C           -3.73493516        0.66571184        0.64073026
 C           -3.69807012       -0.43617398       -0.31129727
 C           -2.19895238        2.58558646        0.26733345
 C           -3.41602128        1.87897276       -0.07731433
 C           -0.30870781        3.42193087       -1.02986146
 C           -1.65702616        3.10221954       -0.97771590
 C            1.84795305        2.82807030       -1.74020305
 C            2.51291662        1.56567288       -2.02795862
 C            0.48206904        3.04095694       -2.19209949
 C            1.85534055       -0.72233739       -2.59121860
 C            1.94554078        0.68542707       -2.93343338
 C           -0.16625818       -1.97986175       -2.05793731
 C           -1.40378622       -1.53764850       -1.54054441
 C            0.52595338       -1.18362942       -2.96095581
 C           -3.21696905        0.08748237       -1.56683857
 C           -3.32279362        1.53473082       -1.48559548
 C           -2.25980513        2.33858589       -2.06320575
 C           -2.08471451       -0.46685079       -2.16143503
 C           -0.06107231        2.18893352       -3.14732850
 C            0.71744156        1.05520363       -3.62143909
 C           -0.15554414       -0.10843543       -3.63572552
 C           -1.43932530        1.74705657       -3.01479927
 C           -1.44811171        0.29615239       -3.13953298
