58
Modified xyz file
 C            1.44494723       -0.10915658        4.38126020
 C            0.62748351       -1.30555312        4.29208393
 C            1.43131013       -2.33489107        3.66918788
 C            2.61105175       -0.31470199        3.53814881
 C            2.61066519       -1.69319258        3.10362824
 C            2.60171370        0.71714474        2.52535461
 C            0.68237772        0.99683639        3.82094322
 C            1.47113939        1.59676583        2.77864659
 C           -0.63508381       -0.93120986        3.67827565
 C           -0.62289030        0.50994157        3.46119471
 C           -1.22566787       -1.74638132        2.70959593
 C            0.82907596       -3.13745520        2.62587177
 C           -0.52102002       -2.83113530        2.17567413
 C            2.62291860       -1.97117909        1.67645263
 C            1.69478036       -3.06019687        1.46020013
 C            2.87573664        0.39234129        1.19956408
 C            2.64142197       -0.91835767        0.75675995
 C            2.70419326        1.42863381        0.29383168
 C            0.83018353        2.13661719        1.66820580
 C            1.65860421        2.39638685        0.58862965
 C           -1.23835417        1.00378994        2.31505305
 C           -0.52007034        1.81843284        1.41427101
 C           -2.24414159       -1.18649117        1.94573648
 C           -2.30861196        0.26316008        1.84282355
 C           -2.50191975       -1.70699804        0.61533441
 C           -0.53617776       -3.05277974        0.73589115
 C            0.84228199       -3.00751425        0.29165719
 C           -1.49394630       -2.40617481       -0.04068491
 C            2.11325148       -1.13006422       -0.52770439
 C            1.15028317       -2.12823099       -0.73196986
 C            2.62069941        1.13559457       -1.12110838
 C            2.29373376       -0.15665216       -1.51647347
 C            1.08235186        2.81147601       -0.66330304
 C            1.92290709        2.26436050       -1.71531783
 C           -1.07943371        2.12306845        0.15072649
 C           -0.29503021        2.77875327       -0.81832929
 C           -2.89028463        0.58764628        0.56450013
 C           -3.21937802       -0.66704083       -0.09738909
 C           -2.35041419        1.62134748       -0.18898914
 C           -3.21230289       -0.68970523       -1.48164821
 C           -1.16689776       -2.04035126       -1.35326478
 C            0.18433339       -1.93247668       -1.71030481
 C           -2.14894006       -1.43368841       -2.13996199
 C            1.69321312       -0.34309427       -2.76283247
 C            0.56215458       -1.24733881       -2.85629112
 C            1.38546333        2.13037402       -2.98530355
 C            1.40376799        0.81407894       -3.59792286
 C           -0.78694291        3.00091713       -2.10222962
 C            0.07886204        2.71633551       -3.23756264
 C           -2.84544401        1.76913883       -1.48284192
 C           -3.33348565        0.58313674       -2.16645343
 C           -2.11326263        2.55289139       -2.44861038
 C           -1.77800011       -0.70767238       -3.34486999
 C           -0.44001726       -0.64011126       -3.71258920
 C            0.11672765        0.59765545       -4.23972386
 C           -0.64281366        1.83102602       -4.13472367
 C           -2.61977330        0.47801223       -3.42353118
 C           -2.01732915        1.77393182       -3.67756797
