58
Modified xyz file
 C            1.63519609        0.01045093        4.02715941
 C            0.80454782       -1.17119995        3.88401473
 C            1.37231869       -1.98544551        2.82690096
 C            2.59867655        0.00800993        2.93834392
 C            2.44118155       -1.22023519        2.20060234
 C            2.45630144        1.24561782        2.21619539
 C            0.78211056        1.17362493        3.85962425
 C            1.34110268        1.98266221        2.79321474
 C           -0.57320530       -0.74255549        3.75917415
 C           -0.58580055        0.71496565        3.73472668
 C           -1.40712811       -1.45538433        2.90668527
 C            0.52775438       -2.72066437        2.00073116
 C           -0.85934018       -2.54696511        2.10895978
 C            1.06394024       -3.16660644        0.79710103
 C            2.50729315       -1.19750202        0.80909565
 C            2.08908734       -2.35226321        0.15961660
 C            2.58303877        1.24628079        0.83346634
 C            2.47108616        0.03190423        0.12224599
 C            2.20757861        2.42828903        0.21387388
 C            0.48805664        2.66602695        1.92610765
 C            1.03000405        3.11229052        0.72266869
 C           -1.42522534        1.38283183        2.85307523
 C           -0.89014930        2.44693893        2.00728355
 C           -2.37827049       -0.75087543        2.08257867
 C           -2.39681181        0.63502411        2.07029170
 C           -1.71525817       -2.68427112        0.93529142
 C           -2.51114144       -1.47334335        0.82766468
 C            0.18175928       -3.66375852       -0.23896389
 C           -1.20964251       -3.26096597       -0.21835368
 C            1.81887954       -2.32637666       -1.26093737
 C            0.74376693       -3.26845128       -1.51776705
 C            2.22456246        0.04909751       -1.26741805
 C            1.81147623       -1.11145464       -1.93169433
 C            2.18291929        2.49791125       -1.22439595
 C            2.20617023        1.25844980       -1.96261183
 C            0.16391728        3.37778030       -0.41469385
 C            0.97920371        3.21872245       -1.60809692
 C           -1.70689135        2.49490603        0.80241414
 C           -2.57714854        1.32889842        0.80969494
 C           -1.14876776        2.90960280       -0.40440040
 C           -2.54589546       -0.77554768       -0.38091136
 C           -2.74503183        0.61496823       -0.37240192
 C           -1.50909303       -2.65342381       -1.50490263
 C           -0.34848122       -2.84103358       -2.36703291
 C           -2.21563297       -1.44941405       -1.56763923
 C            1.08254268       -1.01467627       -3.12246176
 C           -0.08101521       -1.87143499       -3.32087206
 C            1.29342425        1.42341229       -3.07903033
 C            0.41488390        2.54469329       -2.75896551
 C            0.77561702        0.28901614       -3.68821234
 C           -1.74561030        2.48126795       -1.59358861
 C           -2.64498892        1.33794797       -1.55378855
 C           -0.96243856        2.38090209       -2.81769223
 C           -2.24977396       -0.77829436       -2.78823084
 C           -1.17498674       -1.01582825       -3.73540805
 C           -0.61655634        0.27194798       -4.10746392
 C           -2.54021430        0.63774944       -2.81257785
 C           -1.51389783        1.29577979       -3.60828952
