58
Modified xyz file
 C            1.20114177       -0.03583066        4.10860897
 C            2.46852579       -0.39457820        3.51021571
 C            2.26764688       -1.65135897        2.79444624
 C            0.35245948       -1.20820093        4.02169583
 C            0.87377278       -2.01602727        2.93528721
 C           -1.00681989       -0.72622457        3.92291326
 C            0.44397130        1.06218133        3.52870591
 C           -0.94742101        0.71449564        3.69699968
 C            0.87138782        1.62728754        2.32562669
 C            3.06173168        0.53896448        2.57702198
 C            2.23014813        1.59650746        2.02316247
 C            2.81131698       -1.48743359        1.46319565
 C            3.54303372       -0.24232460        1.45548099
 C            2.01862757       -1.76671843        0.35624488
 C            0.09402205       -2.19452492        1.79181197
 C            0.70043982       -2.22052473        0.52402916
 C           -1.85171582       -1.26646494        2.87934049
 C           -1.29811495       -2.09180514        1.89899714
 C           -1.87406115        1.01482894        2.62681902
 C           -2.69531802       -0.16700137        2.45547038
 C           -0.05001849        1.91644977        1.30568809
 C           -1.42364338        1.67162153        1.48692806
 C            0.40917664        2.42122018        0.07723039
 C            2.65205648        1.77071432        0.64961797
 C            3.41679224        0.58707735        0.27784572
 C            1.75468147        2.27779554       -0.28490295
 C            2.40985221       -1.24884712       -0.88019551
 C            3.08769698       -0.01735051       -0.92760234
 C            1.78997264       -1.75337112       -2.01812741
 C           -0.06848810       -2.52733427       -0.60730353
 C            0.47104558       -2.34125502       -1.88038928
 C           -2.08573937       -2.38214626        0.79249351
 C           -1.45368570       -2.60267424       -0.49455827
 C           -3.39512079       -0.31073497        1.26900042
 C           -3.27724640       -1.57780573        0.56794548
 C           -2.27837769        1.70522605        0.38577874
 C           -3.28075743        0.73628964        0.26516466
 C           -0.51719614        2.81772596       -0.88800615
 C           -1.90893566        2.43723523       -0.73306908
 C           -0.18300528        2.71050944       -2.30140431
 C            2.07806942        2.07151923       -1.62655659
 C            2.81027998        0.86403011       -1.96434517
 C            1.08923085        2.29799327       -2.66348179
 C            1.81244183       -0.99581402       -3.25774260
 C            2.30791250        0.36013080       -3.22282282
 C            1.24036988        1.24489072       -3.66012528
 C           -0.37374115       -1.77879019       -2.92518543
 C            0.45938250       -0.96346558       -3.78832189
 C            0.09347202        0.42184411       -4.01295090
 C           -2.28063718       -1.97598322       -1.51810808
 C           -3.38446164       -1.31134092       -0.85501129
 C           -3.53408317        0.11821378       -1.02954410
 C           -1.65377527       -1.34905850       -2.59036576
 C           -2.40958124        2.02453096       -2.03304011
 C           -1.32514883        2.13391765       -2.98916802
 C           -1.17752105        0.84690344       -3.65047101
 C           -2.98885228        0.70106065       -2.16193545
 C           -2.09719194       -0.08617514       -3.00903151
