58
Modified xyz file
 C            1.33557129       -0.06557527        3.83258773
 C            2.59691624       -0.25693928        3.14269890
 C            2.59942294       -1.60437420        2.60235366
 C            0.50550511       -1.23491196        3.57594372
 C            1.25213949       -2.13292284        2.71977966
 C           -0.79055563       -0.76876241        3.12823863
 C            0.54182552        1.11225398        3.53185264
 C           -0.82782940        0.66921879        3.32926865
 C            1.06940434        2.10474462        2.71042569
 C            2.95899664        0.65058046        2.06747741
 C            2.25811572        1.83718421        1.90628294
 C            3.19882526       -1.55481204        1.28237132
 C            3.27125014       -0.15059815        0.89387994
 C            2.76446813       -2.47632276        0.34150629
 C            0.64489531       -2.64971702        1.57877083
 C            1.46648027       -3.10611579        0.54542011
 C           -1.34513370       -1.30310952        1.96840845
 C           -0.70005961       -2.36485864        1.31303004
 C           -2.38288580       -0.60489173        1.33862111
 C           -1.68276926        1.42806406        2.54226613
 C           -2.55579926        0.75092790        1.59876620
 C            0.17148120        2.91867550        1.90459185
 C           -1.19067920        2.63524688        1.89488587
 C            1.98506296        2.30849584        0.56264096
 C            0.85407288        3.21268728        0.65285006
 C            2.81110317        0.24131175       -0.36874327
 C            2.07248520        1.42036291       -0.50974319
 C            2.84227605       -2.10573281       -1.05669598
 C            2.80410457       -0.69451972       -1.39603033
 C            0.89964696       -3.39269462       -0.76347442
 C            1.75036394       -2.76340230       -1.75421185
 C           -1.30032866       -2.95720404        0.20518521
 C           -0.47465116       -3.32567198       -0.93153497
 C           -2.98677597       -1.12855042        0.20366090
 C           -2.52929807       -2.39728755       -0.31883580
 C           -3.25143033       -0.24487591       -0.92265653
 C           -2.80479051        1.65482666        0.48734388
 C           -1.95346373        2.82418394        0.67048249
 C           -3.00985766        1.12569496       -0.78874035
 C            0.11327339        3.45853655       -0.49246734
 C           -1.34030647        3.40210918       -0.43277499
 C            1.29609128        1.64610351       -1.65639565
 C            0.51135505        2.80159142       -1.72351558
 C            1.87328478       -0.53743338       -2.49503114
 C            1.16403156       -1.79897693       -2.66552603
 C            1.15880145        0.64511177       -2.63033571
 C           -1.02075066       -2.64512131       -2.09919357
 C           -2.37939789       -2.26047953       -1.75938674
 C           -2.84950918       -0.94317449       -2.13740738
 C           -0.21848136       -1.77300500       -2.84297487
 C            0.01063664        0.59224790       -3.41831784
 C           -2.15549467       -0.25058317       -3.11513866
 C           -0.77859004       -0.62750200       -3.41159396
 C           -2.66393914        1.87880287       -1.91189050
 C           -1.81256530        3.04612610       -1.75788858
 C           -0.64278079        2.84578924       -2.59979397
 C           -2.22663445        1.19878573       -3.11783592
 C           -0.90712955        1.71046279       -3.45345613
