58
Modified xyz file
 C            1.63962699       -0.06551253        4.37353441
 C            0.84047554       -1.26856297        4.51307094
 C            1.28041023       -2.20875461        3.49947028
 C            2.52696818       -0.25013636        3.23754380
 C            2.28940472       -1.56129811        2.67551480
 C            2.36640130        0.89036434        2.37029586
 C            0.74178169        1.03033775        4.04964766
 C            1.25867906        1.69057118        2.86152688
 C           -0.53922191       -0.92590332        4.21133357
 C           -0.61275477        0.51162857        4.01787161
 C            0.09615901       -2.72101759        2.83960324
 C           -0.99196682       -1.80014032        3.13808910
 C            0.23685332       -3.15488203        1.53573769
 C            2.19096982       -1.69593510        1.28914955
 C            1.42933687       -2.75211357        0.80220256
 C            2.44730243        0.70656543        1.00330354
 C            2.41397690       -0.58615731        0.45857223
 C            1.98790802        1.74659411        0.21938340
 C            0.36042398        2.20847146        1.92432614
 C            0.79768206        2.37471639        0.60444984
 C           -1.46937547        0.99725706        3.04329112
 C           -1.00352902        2.05187346        2.15440014
 C           -1.74201105       -1.25481397        2.09050359
 C           -2.20010205        0.05239148        2.21143340
 C           -0.86696215       -2.94939607        0.62591634
 C           -1.71194353       -1.85931165        0.82709921
 C            1.08882076       -2.79543761       -0.60618152
 C           -0.31620575       -3.17554009       -0.69087738
 C            2.26793761       -0.71554951       -0.93570705
 C            1.57701752       -1.81569517       -1.46659961
 C            2.35140155        1.72233190       -1.11213571
 C            2.48470603        0.41732949       -1.73080994
 C            1.67402092        2.60403488       -2.03508172
 C           -0.11099330        2.79493098       -0.37852310
 C            0.38077210        3.12541627       -1.64482171
 C           -1.90832276        2.05217043        1.02351769
 C           -2.60789252        0.77376779        1.02546189
 C           -1.48106935        2.55324159       -0.19806362
 C           -2.26454972       -1.21115940       -0.29128122
 C           -2.74956856        0.09984133       -0.18177907
 C           -1.04689040       -2.75170258       -1.78355034
 C           -2.12081804       -1.79652410       -1.55548291
 C            1.01669560       -1.74619332       -2.74370923
 C           -0.30969207       -2.30278669       -2.94758308
 C            1.90705265        0.50718170       -3.06199977
 C            1.51221245        1.88820298       -3.28819880
 C            1.09941351       -0.52223925       -3.51826481
 C           -0.48086634        3.03090228       -2.81055121
 C            0.17924354        2.17194467       -3.78350222
 C           -2.26854331        2.21731356       -1.29526786
 C           -2.86901522        0.89411616       -1.32239396
 C           -1.83004726        2.54508910       -2.63382852
 C           -2.24036243       -0.98503177       -2.75642674
 C           -1.11629125       -1.30469227       -3.62223516
 C           -0.22966122       -0.23820778       -4.05519525
 C           -0.71384886        1.06581845       -4.07905183
 C           -2.64611472        0.33452060       -2.64269700
 C           -1.99503452        1.35576965       -3.45445015
