58
Modified xyz file
 C            1.48875736       -0.12402120        4.20838635
 C            0.66850686       -1.31952795        4.14174750
 C            1.49522392       -2.36881358        3.58399998
 C            2.63740351       -0.33569725        3.34327098
 C            2.65908022       -1.73488305        2.97939201
 C            2.57766442        0.65325841        2.28389855
 C            0.71759556        0.96918944        3.64720431
 C            1.50256580        1.57466859        2.58695614
 C           -0.57857473       -0.97031895        3.47364359
 C           -0.59987248        0.46919057        3.30033097
 C           -1.07270665       -1.77031411        2.44519792
 C            0.91053888       -3.24237818        2.58978129
 C           -0.43855318       -2.97719539        2.12475596
 C            2.66387315       -2.08566767        1.57137360
 C            1.76415135       -3.20976831        1.41148598
 C            2.73331416        0.26731240        0.95778792
 C            2.64027282       -1.08736627        0.60080287
 C            2.43573288        1.21560665       -0.01762135
 C            0.81162377        2.12464794        1.51329085
 C            1.43327505        2.15960555        0.26056805
 C           -1.19449034        0.99177701        2.15968177
 C           -0.58000135        2.08341728        1.55199144
 C           -1.96319743       -1.21363611        1.52149603
 C           -2.03409044        0.18459098        1.38628123
 C           -2.42133222       -2.03555410        0.49505615
 C           -0.46077932       -3.43190820        0.74775341
 C            0.88933564       -3.23660690        0.24678751
 C           -1.51254780       -3.02537409       -0.04869132
 C            2.16294024       -1.41620574       -0.67017739
 C            1.09687800       -2.31357785       -0.78084560
 C            2.68261170        0.85066008       -1.33270089
 C            2.39438276       -0.51974482       -1.70256279
 C            2.22256387        1.70345549       -2.40491237
 C            0.76765043        2.81511061       -0.78559809
 C            1.26703158        2.74004849       -2.08805460
 C           -1.27649833        2.75135060        0.56282596
 C           -0.52751655        3.28764284       -0.55764827
 C           -2.69902124        0.77275277        0.29730518
 C           -2.46538555        2.12043745        0.01924279
 C           -3.11559412       -1.45769195       -0.63338484
 C           -3.26685190       -0.02191653       -0.69718353
 C           -1.21528962       -2.57491733       -1.39344894
 C            0.03812225       -2.02543547       -1.65436816
 C           -2.39598579       -1.87021179       -1.83349451
 C            1.44639245       -0.46214069       -2.79613522
 C            1.60954052        0.84254395       -3.40546068
 C            0.17390727       -0.99618309       -2.59760611
 C            0.36228958        2.80862668       -3.22473883
 C            0.44124285        1.52554268       -3.90621026
 C           -1.46715069        3.43015750       -1.65710084
 C           -2.63037117        2.61464870       -1.34104537
 C           -1.03990229        3.09690027       -2.99874675
 C           -3.07770849        0.33797065       -2.09330091
 C           -2.23060091       -0.69741492       -2.66020091
 C           -0.96415607       -0.34818303       -3.12073025
 C           -0.84938958        0.88676270       -3.76223567
 C           -2.81506250        1.66061928       -2.42008726
 C           -1.80183811        1.93415896       -3.42800458
