58
Modified xyz file
 C            1.49973738       -0.04395480        4.26974812
 C            0.70422164       -1.21961717        3.95898552
 C            1.48422717       -2.04964649        3.07264043
 C            2.62995711       -0.02587764        3.35626327
 C            2.67850140       -1.30505763        2.69294584
 C            2.52098437        1.16225936        2.53756185
 C            0.68295708        1.12477136        3.99053221
 C            1.35235747        1.91284679        2.97345899
 C           -0.59908397       -0.76691174        3.51154138
 C           -0.66351395        0.67043152        3.72350558
 C           -1.17127912       -1.30002246        2.35395032
 C            0.86728076       -2.52183568        1.85011832
 C           -0.46621552       -2.23038406        1.56869864
 C            2.76065820       -1.32900454        1.24401399
 C            1.83459873       -2.34516450        0.78879085
 C            2.79007781        1.10431461        1.17260303
 C            2.84418875       -0.14165031        0.51388828
 C            2.44303405        2.23740871        0.44836302
 C            0.58892455        2.57218524        2.00737630
 C            1.21983571        2.93238411        0.81622858
 C           -1.44103032        1.42243116        2.85817174
 C           -0.80488053        2.44109279        2.02486547
 C           -2.27082770       -0.63668896        1.80401286
 C           -2.40844863        0.73502774        2.02261903
 C           -2.93257904       -1.20888284        0.72396635
 C           -0.91322358       -2.49791691        0.27266456
 C           -2.23977902       -2.22467526       -0.04362638
 C            1.35352588       -2.25190827       -0.50600022
 C            0.03311003       -2.62979328       -0.75056055
 C            2.59414190       -0.21773090       -0.86455192
 C            1.97053852       -1.36031110       -1.38266734
 C            2.52672528        2.21540237       -0.99327995
 C            2.65987143        0.93375630       -1.64425479
 C            0.43492911        3.08444808       -0.39873724
 C            1.32046524        2.84228856       -1.51486312
 C           -1.55362169        2.50703505        0.77396337
 C           -2.69054699        1.61321981        0.89931983
 C           -0.86190138        2.58795580       -0.43125643
 C           -3.61435599       -0.33477472       -0.21617824
 C           -3.24807505        1.06886818       -0.24434735
 C           -2.64857312       -2.09558242       -1.43416924
 C           -3.42421021       -0.87079186       -1.55027736
 C           -0.38074783       -2.75846704       -2.07290443
 C           -1.74172698       -2.40020009       -2.43863973
 C            1.61126589       -1.40516936       -2.72972036
 C            0.50401185       -2.26620846       -3.11628909
 C            1.86755431        1.01435513       -2.85584658
 C            0.84753056        2.02240487       -2.60681086
 C            1.48425924       -0.16193266       -3.47644759
 C           -1.33176029        1.89080594       -1.55689966
 C           -2.60763402        1.32418793       -1.52455891
 C           -2.92277248        0.20320578       -2.39391732
 C           -0.49411488        1.64901912       -2.65860407
 C           -1.66365071       -1.51166755       -3.58659058
 C           -0.30218394       -1.54764161       -4.08664219
 C            0.18750772       -0.18301965       -4.12776207
 C           -2.04718674       -0.11838761       -3.41831582
 C           -0.85305545        0.68877124       -3.60607831
