58
Modified xyz file
 C            1.56282401        0.02730180        3.90480244
 C            0.72639227       -1.13583289        3.67441171
 C            1.27436088       -1.87393000        2.54873891
 C            2.54391688        0.08341652        2.83679039
 C            2.38911786       -1.10665757        2.02126956
 C            2.42919004        1.37735642        2.18842003
 C            0.72139744        1.20306238        3.78368295
 C            1.36997081        2.11595714        2.86103709
 C           -0.65150626       -0.68807375        3.59546930
 C           -0.63014687        0.76149858        3.47780099
 C           -1.51598252       -1.40645853        2.78984925
 C            0.38992682       -2.46958651        1.65197097
 C           -0.97107177       -2.47380692        1.96591810
 C            0.78451653       -2.64034000        0.32064456
 C            2.50601905       -0.98282055        0.64510580
 C            1.89584577       -1.94018312       -0.16327582
 C            2.51702443        1.42964589        0.79830330
 C            2.84043834        0.26019093        0.10077949
 C            1.94430763        2.50951061        0.11486382
 C            0.56124839        2.94285654        2.09947202
 C            0.98645589        3.29063759        0.75669674
 C           -1.31661510        1.39173668        2.43650089
 C           -0.86202495        2.64352746        2.02362622
 C           -2.44987615       -0.68272220        1.95049850
 C           -2.18034605        0.64527502        1.61596525
 C           -1.94801707       -2.73501638        0.92432993
 C           -2.88478881       -1.61322468        0.92394705
 C           -0.09005070       -3.26271936       -0.57350109
 C           -1.51314874       -3.27945543       -0.27647311
 C            0.06289675       -3.05880935       -2.00686768
 C            2.18251054       -1.94864104       -1.52504927
 C            1.14618550       -2.32753594       -2.46540518
 C            3.14835519        0.33999334       -1.25220027
 C            2.87414579       -0.80596809       -2.10019466
 C            1.99162179        2.54154243       -1.27800051
 C            2.74643273        1.52399388       -1.98297671
 C            0.75922529        2.76127448       -2.02416622
 C           -0.20714685        3.67255727        0.02362784
 C           -1.35501127        3.21004888        0.78908575
 C           -0.36123216        3.21181107       -1.34595121
 C           -2.64262748        1.16120743        0.39116258
 C           -2.15815245        2.37924272       -0.07514072
 C           -1.58373524        2.42900766       -1.41108893
 C           -3.36605142       -1.10799443       -0.27376617
 C           -3.18115397        0.30115620       -0.56656741
 C           -2.23027514       -2.96838139       -1.49971779
 C           -1.24855639       -2.73872716       -2.54476796
 C           -3.15092496       -1.84837714       -1.50576239
 C           -1.64966275        1.27979406       -2.19813790
 C           -2.70335776        0.41190763       -1.93662873
 C           -1.46829946       -1.40552474       -3.08452350
 C           -2.70239184       -0.90730435       -2.52160441
 C            0.88557319       -1.15000073       -3.27428295
 C            2.08414023       -0.34016105       -3.23169559
 C            1.94437118        1.09243978       -3.11749718
 C            0.61633063        1.65041834       -2.94585400
 C           -0.37361104       -0.55220714       -3.20263273
 C           -0.48897667        0.80209172       -2.83104134
