58
Modified xyz file
 C            1.13928898       -0.14648374        3.86410029
 C            2.34998779       -0.45944566        3.13915042
 C            2.18014274       -1.77710695        2.54344550
 C            0.28383794       -1.32019995        3.79832095
 C            0.80108000       -2.16745395        2.73954798
 C           -1.07950688       -0.84991108        3.70134942
 C            0.34444057        0.98688574        3.42813681
 C           -1.03971699        0.60179189        3.59680598
 C            0.70996027        1.68181963        2.27494317
 C            2.77218384        0.43585388        2.08186331
 C            2.01963462        1.56486319        1.77897479
 C            2.69007736       -1.71264956        1.18924062
 C            3.25040704       -0.38544010        0.98566935
 C            1.95802909       -2.28222499        0.15593501
 C            0.01305903       -2.42695791        1.61790804
 C            0.63629306       -2.68997066        0.38613746
 C           -1.90057763       -1.33410839        2.61091371
 C           -1.37649761       -2.22770305        1.68379075
 C           -1.99070280        0.99189239        2.57626977
 C           -2.67359956       -0.20896654        2.11967552
 C           -0.28284353        2.32576171        1.51695236
 C           -1.62634514        1.94041993        1.62992873
 C            0.08764884        3.19862139        0.49788236
 C            2.38273010        2.25743820        0.63186329
 C            1.46918183        3.22661408        0.06806437
 C            3.25378631        0.14860258       -0.30358363
 C            2.99260008        1.51555251       -0.46411971
 C            2.36800984       -1.98278865       -1.14057338
 C            3.06213619       -0.72506106       -1.37526540
 C            1.48406357       -2.23122296       -2.26793785
 C           -0.12167388       -3.16351129       -0.68104845
 C            0.22763794       -2.76479297       -2.03266746
 C           -2.15999491       -2.48702415        0.56742486
 C           -1.56513565       -3.12772626       -0.58469243
 C           -3.15930663       -0.24591759        0.81197552
 C           -3.06138129       -1.44464490        0.09364317
 C           -2.47941441        2.09761413        0.54077573
 C           -3.29370060        0.96371838        0.12844836
 C           -0.73436365        3.28703374       -0.69559235
 C           -2.02687204        2.79064795       -0.65460182
 C            1.49100068        3.07722147       -1.37907294
 C            2.43172165        2.02566280       -1.71059731
 C            0.11650262        2.95866494       -1.83124708
 C            2.62165165       -0.21025049       -2.65833910
 C            1.60162639       -1.10663249       -3.17683240
 C            2.11068408        1.14243486       -2.72892917
 C           -0.24273643        1.91823765       -2.69201015
 C            0.41758947       -0.31955552       -3.47106207
 C            0.73861659        1.07803860       -3.21924035
 C           -0.94047013       -2.10952167       -2.60508888
 C           -2.07749961       -2.47281267       -1.77867206
 C           -3.00279109       -1.43714390       -1.36409576
 C           -0.83382923       -0.80879652       -3.10429956
 C           -3.36073226        0.97193775       -1.32095662
 C           -2.52670983        2.06001547       -1.80394322
 C           -1.57321816        1.51052185       -2.75099659
 C           -2.99695682       -0.22907263       -2.04283174
 C           -1.87903341        0.09723158       -2.92084014
