58
Modified xyz file
 C            1.23189516       -0.03760158        3.68113770
 C            2.46963349       -0.33455492        3.00199265
 C            2.40673697       -1.71134710        2.53542024
 C            0.40172888       -1.23244830        3.64386646
 C            1.08868884       -2.22943069        2.84661139
 C           -0.94033282       -0.82565440        3.26512896
 C            0.42804812        1.06950330        3.20343144
 C           -0.95619510        0.62748661        3.19310447
 C            0.88244126        1.88102199        2.16541897
 C            2.85689509        0.49173954        1.87692079
 C            2.10713787        1.61416884        1.52772990
 C            2.86799778       -1.73288115        1.15771603
 C            3.32149574       -0.39260396        0.82153702
 C            2.17146927       -2.46434979        0.20231492
 C            0.38390305       -2.90727182        1.86276239
 C            0.99406951       -3.13112533        0.55870109
 C           -1.64796669       -1.55405011        2.31161842
 C           -1.02892269       -2.61697305        1.64803103
 C           -2.75949235       -0.95388905        1.72607740
 C           -1.86222353        1.24568948        2.33551591
 C           -2.92541442        0.48606901        1.85273002
 C           -0.04727716        2.72829400        1.56803603
 C           -1.46388969        2.39798116        1.65219794
 C            0.20461470        3.28756579        0.25257488
 C            2.39891924        2.20837022        0.30126085
 C            1.43840469        3.08944740       -0.34025251
 C            3.24417856        0.04329861       -0.49976079
 C            3.03156795        1.40212370       -0.73399348
 C            2.43146990       -2.19479078       -1.13732743
 C            2.96403678       -0.88976235       -1.50359890
 C            1.46579385       -2.58429880       -2.14836953
 C           -0.08940972       -3.27743191       -0.40509094
 C           -1.31741237       -2.84818252        0.23866066
 C            0.12674450       -2.95194869       -1.73183901
 C           -3.12258726       -1.30619936        0.36384740
 C           -2.20046096       -1.99681157       -0.42052244
 C           -3.68427427        0.94409285        0.70190874
 C           -3.87269683       -0.19437214       -0.18500183
 C           -2.07752861        2.75849102        0.37943829
 C           -1.00901094        3.12982375       -0.53891488
 C           -3.17223842        2.04639596       -0.08818183
 C           -0.94907063        2.57173289       -1.82063805
 C            1.49246562        2.84417317       -1.76806007
 C            2.51311262        1.84037425       -2.01626697
 C            0.28144709        2.43311187       -2.45429320
 C            2.31549913       -0.47621197       -2.74383397
 C            1.35882779       -1.50023916       -3.10978365
 C            1.96372272        0.85212063       -2.92141498
 C            0.56911682        1.20012731       -3.17392406
 C           -0.80926314       -2.06872414       -2.40579765
 C           -1.94315089       -1.59977902       -1.74487250
 C           -0.04183874       -1.13948698       -3.22409069
 C           -0.41155402        0.20552818       -3.25030937
 C           -3.58112032        0.23692218       -1.53050984
 C           -3.20387375        1.64132979       -1.48009679
 C           -2.01081595        1.80817694       -2.29253528
 C           -2.55605525       -0.46531953       -2.27522929
 C           -1.72798648        0.53257970       -2.93118205
