58
Modified xyz file
 C            1.53265188       -0.17873616        4.48780821
 C            0.71889061       -1.38222364        4.51249707
 C            1.23419035       -2.28400660        3.49911384
 C            2.52493122       -0.33448646        3.43832988
 C            2.42984499       -1.68917373        2.92690020
 C            2.37393443        0.77044372        2.50478967
 C            0.67177347        0.92878746        4.11424427
 C            1.24792808        1.57571807        2.94489843
 C           -0.63163408       -1.01407892        4.12330725
 C           -0.69040943        0.43284709        4.02620229
 C            0.13968296       -2.62952827        2.60572134
 C           -1.00159731       -1.80384231        2.95690976
 C            0.41812321       -2.82225605        1.26090311
 C            2.66697461       -1.89272968        1.57573198
 C            1.74191425       -2.72552741        0.83044859
 C            2.52439057        0.52529659        1.14344129
 C            2.92740401       -0.74166314        0.72380152
 C            1.87285363        1.35338324        0.23217363
 C            0.38913257        2.09801112        1.98271958
 C            0.82329190        2.17428166        0.66065276
 C           -1.51132308        0.98173306        3.05494231
 C           -0.97922180        2.04204248        2.21588069
 C           -1.73286101       -1.19473117        1.93637732
 C           -2.22362465        0.08849916        2.15388032
 C           -0.59677886       -2.60378172        0.33337491
 C           -1.58641931       -1.64975507        0.61991852
 C           -0.33769770       -2.95556097       -0.98559562
 C            2.00587230       -2.46562826       -0.57446281
 C            2.64631086       -1.15965375       -0.64493267
 C            1.01067331       -2.76079360       -1.49081296
 C            2.02085562        1.10232705       -1.12953994
 C            2.16966586       -0.22114685       -1.55799278
 C            1.56896025        2.06525199       -2.02176063
 C           -0.01671077        2.75067818       -0.29775090
 C            0.50692031        2.95055312       -1.57702421
 C           -1.87517429        2.14175809        1.08290101
 C           -2.62182867        0.89245995        1.01726084
 C           -1.40681601        2.66901620       -0.11352886
 C           -2.26524382       -0.99352617       -0.42412919
 C           -2.77818995        0.29524438       -0.22759506
 C           -1.26073353       -2.55084720       -2.02307498
 C           -2.23106294       -1.52537077       -1.71346905
 C            0.89574859       -1.93690972       -2.67790194
 C            1.47927359       -0.67047771       -2.69283661
 C           -0.46843305       -2.08168688       -3.14843449
 C            1.27329462        1.66197211       -3.37989080
 C            1.02384165        0.25776286       -3.62752933
 C           -0.38633220        3.17269174       -2.70080606
 C            0.11874880        2.41613335       -3.83377597
 C           -2.22717105        2.45212478       -1.21629331
 C           -2.88918817        1.16289901       -1.31520869
 C           -1.78099224        2.83860892       -2.53595562
 C           -2.28897232       -0.63534386       -2.86175531
 C           -1.12843204       -0.91698495       -3.70303391
 C           -0.33345074        0.13323382       -4.14899008
 C           -0.90676269        1.46338226       -4.22429957
 C           -2.70419503        0.67549439       -2.67018402
 C           -2.09682174        1.74781519       -3.44656522
