58
Modified xyz file
 C            1.29844836       -0.15982023        4.48864088
 C            0.44869871       -1.33429533        4.54534786
 C            1.08733918       -2.37617732        3.76364203
 C            2.40611190       -0.44618710        3.58933997
 C            2.31951842       -1.83832670        3.20204349
 C            2.41033815        0.56937973        2.54917277
 C            0.52420321        0.91028892        3.89049790
 C            1.33587468        1.50043565        2.84849577
 C           -0.80941938       -1.00846081        3.89104077
 C           -0.77119195        0.38676466        3.50310268
 C            0.08623935       -2.91797747        2.86030482
 C           -1.04297216       -1.99627406        2.85799096
 C            0.51323718       -3.44817604        1.65021969
 C            2.65969482       -2.18542170        1.90147508
 C            1.89412887       -3.23084541        1.24603410
 C            2.61567719        0.19863225        1.21417741
 C            2.89746135       -1.13552091        0.91210152
 C            2.14582359        1.05272562        0.20259462
 C            0.68688629        2.06219892        1.76647988
 C            1.42017393        2.17623681        0.59975095
 C           -1.25369522        0.74696601        2.24778565
 C           -0.68852657        1.85726169        1.62782273
 C           -1.56630276       -1.57806218        1.63754025
 C           -1.85172464       -0.21626124        1.43484086
 C           -0.31590437       -3.26220999        0.47170104
 C           -1.42825166       -2.42459168        0.53671764
 C            1.90805932       -2.95962239       -0.17920672
 C            2.52264634       -1.66447940       -0.38812165
 C            0.56385008       -3.15526531       -0.68281018
 C            1.97248367        0.56097121       -1.10171936
 C            1.93507992       -0.81773968       -1.31596692
 C            1.47541194        1.40848325       -2.10005780
 C            0.88938897        3.01151949       -0.36364873
 C            1.13710140        2.71675340       -1.75555001
 C           -1.28660743        2.34740674        0.46773102
 C           -0.53138302        3.26478234       -0.26262996
 C           -2.37165826        0.19582098        0.20518388
 C           -2.20352914        1.52605949       -0.20753506
 C           -2.02316862       -2.05871050       -0.66195056
 C           -2.68776926       -0.77599635       -0.73983236
 C            0.13748150       -2.36544086       -1.74329189
 C            0.98284801       -1.34410037       -2.19160455
 C           -1.23540397       -2.18921143       -1.87512360
 C            0.97659836        0.83822801       -3.27583997
 C            0.57311112       -0.55528609       -3.25944887
 C            0.00951092        1.54831279       -4.10111285
 C            0.11246993        3.44218676       -2.49479559
 C           -0.97909417        3.70447345       -1.56529918
 C           -0.45615344        2.85487941       -3.68754827
 C           -2.70374707        1.91833797       -1.45618456
 C           -2.17413432        3.10524777       -2.10717270
 C           -1.89738245        2.77883158       -3.49591060
 C           -2.74643866       -0.42063761       -2.14642412
 C           -1.73611918       -1.22182269       -2.83266149
 C           -0.82100337       -0.60110183       -3.67276474
 C           -1.15529632        0.68906718       -4.24713044
 C           -2.90940237        0.91366786       -2.48730560
 C           -2.29961693        1.40210274       -3.71312794
