58
Modified xyz file
 C            1.52363856       -0.27880927        4.23879924
 C            0.67208237       -1.45145943        4.17687576
 C            1.13172057       -2.27538042        3.07319865
 C            2.52898956       -0.40756669        3.19865500
 C            2.23505439       -1.59080702        2.42453914
 C            2.57683580        0.84961841        2.49459504
 C            0.71101502        0.88150674        3.90949013
 C            1.41402476        1.62981531        2.89528802
 C           -0.66775727       -1.00521370        3.84441134
 C           -0.62413825        0.42529408        3.60467821
 C           -0.02724486       -2.61319160        2.26594477
 C           -1.15757676       -1.85077342        2.76984209
 C            0.12817248       -2.69267237        0.88675920
 C            2.20850116       -1.48506615        1.03764508
 C            1.36149416       -2.33522847        0.33052041
 C            2.89117911        0.85088700        1.14372845
 C            2.71024522       -0.33480616        0.40365512
 C            2.67428044        2.06190428        0.50789125
 C            0.68827904        2.26330872        1.88753645
 C            1.44147956        2.76261283        0.82846583
 C           -1.25454776        0.89791218        2.45954319
 C           -0.63839465        1.86453726        1.64570879
 C           -2.01323698       -1.28403920        1.83156953
 C           -2.24112573        0.09395120        1.89886837
 C           -1.01871552       -2.60859318        0.09504442
 C           -2.12715816       -1.91437412        0.59173433
 C           -0.90487140       -2.85584562       -1.26967452
 C            1.54225317       -2.44930424       -1.03821596
 C            0.42136165       -2.87269761       -1.85744296
 C            2.72481426       -0.29076990       -1.00408606
 C            2.22951351       -1.37667421       -1.73391109
 C            2.88807471        2.15262302       -0.91231182
 C            2.93646535        0.92106514       -1.66602374
 C            0.79615195        3.08557547       -0.42774092
 C            1.81245766        2.96255929       -1.45927859
 C           -1.26451344        2.21155179        0.43737958
 C           -0.49057439        2.61151172       -0.66193381
 C           -3.08839840        0.67308096        0.96846673
 C           -2.59153298        1.82938486        0.24344623
 C           -3.12343631       -1.47292772       -0.27671430
 C           -3.74808590       -0.19655005        0.01389197
 C           -1.78376318       -2.17221383       -2.20109509
 C           -2.92115977       -1.54890897       -1.71583795
 C            0.39327926       -2.03989063       -3.04796312
 C            1.53333863       -1.14878244       -2.99630340
 C           -0.93901510       -1.47089666       -3.16116691
 C            2.24179622        1.17881255       -2.91479902
 C            1.44457295        2.38211615       -2.72989814
 C            1.37588617        0.14808294       -3.45483297
 C           -0.89584130        2.31050656       -1.97585756
 C           -1.09255058       -0.09375769       -3.35684201
 C            0.06150709        2.02018357       -2.94270546
 C            0.03303549        0.70810600       -3.56375327
 C           -3.10832359        1.75610510       -1.10646337
 C           -3.88811169        0.53617318       -1.22910386
 C           -3.29386569       -0.26774244       -2.28211760
 C           -2.16209572        1.78776960       -2.19734280
 C           -2.26546492        0.52838727       -2.92475601
