58
Modified xyz file
 C            1.24107880        0.02277284        3.72414161
 C            2.49335863       -0.19648153        3.04068845
 C            2.51190416       -1.57999428        2.60338157
 C            0.41193981       -1.16155018        3.53225665
 C            1.15655192       -2.09037659        2.70929538
 C           -0.88503694       -0.70987376        3.07054495
 C            0.43749430        1.16542637        3.34468696
 C           -0.94190280        0.71132595        3.34848335
 C            0.86136993        2.02243613        2.32523234
 C            2.80908040        0.62751892        1.89169150
 C            1.98356616        1.69597674        1.54323768
 C            3.15883800       -1.62764258        1.30542443
 C            3.31063524       -0.25057729        0.84204456
 C            2.72910424       -2.59152769        0.40690793
 C            0.56354517       -2.62690784        1.56958648
 C            1.40489773       -3.16871592        0.59749796
 C           -1.36912493       -1.17536400        1.85166014
 C           -0.74452158       -2.25917128        1.22318576
 C           -2.31923348       -0.41351817        1.15979033
 C           -1.88326509        1.47694638        2.68295689
 C           -2.68053907        0.84595244        1.64256158
 C           -0.05675130        2.96690585        1.86329948
 C           -1.46409280        2.77025430        2.17330673
 C            0.02714635        3.46702294        0.50102705
 C            2.11498079        2.21389843        0.25776929
 C            1.08832316        3.07553678       -0.29884614
 C            3.06670250        0.07469259       -0.49706873
 C            2.59897255        1.34956552       -0.80762868
 C            2.88159948       -2.32225050       -1.00620095
 C            2.92195892       -0.93995173       -1.44443998
 C            0.87770096       -3.51669781       -0.70937866
 C            1.79472903       -2.98437714       -1.70585968
 C           -1.32792034       -2.80258984        0.08298849
 C           -0.48701162       -3.41615225       -0.93481870
 C           -2.75846826       -0.81600059       -0.10386325
 C           -2.38141182       -2.06363929       -0.59198117
 C           -3.25300402        0.13594761       -1.00125252
 C           -3.06879681        1.88511097        0.70464398
 C           -2.23635251        3.04689587        0.97569294
 C           -1.31979381        3.51550926       -0.05044632
 C           -3.31993321        1.53620043       -0.61423543
 C           -1.54353716        3.13918187       -1.37035026
 C           -2.70010969        2.31296627       -1.67725632
 C            0.85077748        2.65772588       -1.67276023
 C            1.71386031        1.52318953       -1.94868098
 C           -0.43504911        2.67020829       -2.18987874
 C            1.94335674       -0.78539275       -2.51383305
 C            1.28859961       -2.06806319       -2.71468840
 C            1.21123608        0.39690202       -2.59649269
 C           -0.94358918       -2.94025503       -2.22920430
 C           -2.18471436       -2.21880077       -2.02234745
 C           -0.06264172       -2.09640924       -3.02212026
 C           -2.84446164        0.08638044       -2.39979695
 C           -2.32421209        1.39607853       -2.73881609
 C           -0.89626500        1.53040266       -2.96494267
 C           -0.11862434        0.37395340       -3.03729908
 C           -2.14302284       -1.02407616       -2.84132271
 C           -0.75992091       -0.84652779       -3.26817407
