58
Modified xyz file
 C            1.30948077       -0.13887237        3.83289925
 C            2.58697417       -0.33480408        3.17548095
 C            2.53847731       -1.61208754        2.48392037
 C            0.49929803       -1.32201181        3.58828909
 C            1.19883561       -2.15706388        2.63985136
 C           -0.83457326       -0.88477662        3.24748873
 C            0.51160532        1.02875107        3.49173455
 C           -0.82250163        0.56669370        3.15033850
 C            1.07684316        2.05659930        2.74905128
 C            3.04540411        0.66709966        2.23210316
 C            2.42711752        1.91157025        2.21361527
 C            3.06186700       -1.41918560        1.14271695
 C            3.33284022       -0.00141880        0.96810829
 C            2.48077182       -2.12416242        0.10248630
 C            0.51695624       -2.59830779        1.50950211
 C            1.24833534       -2.85600169        0.34960356
 C           -1.55745504       -1.58391055        2.28970582
 C           -0.87836096       -2.47301119        1.43445273
 C           -2.70862762       -0.94815985        1.83712457
 C           -1.53142092        1.16365392        2.10514307
 C           -2.65601346        0.49149046        1.64670774
 C            0.27004634        2.70306331        1.72837030
 C           -0.87583878        2.06254456        1.25653225
 C            2.49076812        2.69020795        0.99366410
 C            1.18736310        3.30513134        0.79091314
 C            3.01314407        0.63098125       -0.23701528
 C            2.84294413        2.01575093       -0.24283615
 C            2.35131142       -1.49158512       -1.19695110
 C            2.59898982       -0.12727031       -1.34219051
 C            0.56431803       -2.99415931       -0.92384111
 C            1.19269884       -2.07603019       -1.85869065
 C           -1.53283822       -3.01046562        0.32137762
 C           -0.81068192       -3.13144436       -0.93371349
 C           -3.47794077       -1.52064123        0.75620314
 C           -2.88696306       -2.59749338       -0.00236889
 C           -3.16961784        0.77413928        0.32447798
 C           -3.80598640       -0.44335236       -0.16328586
 C           -1.22428917        2.13945751       -0.10848852
 C           -2.41313275        1.53776497       -0.55729116
 C            0.88406538        3.21363573       -0.61621297
 C            2.04274148        2.63246519       -1.27922329
 C           -0.38333352        2.80943399       -1.02095634
 C            2.09735403        0.50869252       -2.47944884
 C            1.83896617        1.94127143       -2.46089670
 C            0.41433700       -1.27045877       -2.68717503
 C            1.01500736       -0.12838614       -3.21878738
 C           -1.57902356       -2.43597565       -1.95007758
 C           -2.91262325       -2.22061077       -1.40745494
 C           -3.50894560       -0.89812828       -1.51032799
 C           -0.98342726       -1.42469731       -2.70537794
 C           -2.62952194        1.34291745       -1.91987065
 C           -2.95027980        0.00858891       -2.39777027
 C           -1.80655459       -0.40508374       -3.18964290
 C           -0.55416845        2.61978307       -2.38911507
 C            0.58746709        2.16556896       -3.16295933
 C            0.20686890        0.92037575       -3.80349217
 C           -1.70891347        1.90759429       -2.87887846
 C           -1.23016468        0.81433002       -3.71752164
