58
Modified xyz file
 C            1.44926561        0.04329964        4.14503650
 C            0.65398871       -1.14598333        3.90533849
 C            1.48532335       -2.09011853        3.19610218
 C            2.64107662       -0.05457853        3.31742552
 C            2.68943690       -1.38894182        2.76766115
 C            2.62742114        1.06430726        2.40008374
 C            0.68309427        1.18875534        3.68156665
 C            1.51614406        1.92951848        2.76473541
 C           -0.58948698       -0.73033909        3.28840619
 C           -0.59184719        0.71817515        3.18934698
 C           -1.10666918       -1.44788647        2.21812467
 C            0.93589114       -2.74283782        2.02402750
 C           -0.38502578       -2.50730421        1.64334531
 C            2.78541230       -1.54522314        1.32651140
 C            1.95990552       -2.69273572        1.00118044
 C            2.88270799        0.86537476        1.04147020
 C            2.74350336       -0.42117700        0.49313586
 C            2.68927650        1.97292509        0.22263977
 C            0.90860060        2.63463471        1.73542542
 C            1.74535637        2.97730397        0.67980309
 C           -1.10500984        1.29796843        2.03007275
 C           -0.45364877        2.40556642        1.46945692
 C           -2.08988107       -0.82979661        1.45715879
 C           -2.00320490        0.55692454        1.24939329
 C           -2.80379432       -1.62946415        0.57966250
 C           -0.79238465       -2.98582964        0.39400514
 C           -2.10957569       -2.76200981       -0.00191823
 C            1.56657886       -2.86746100       -0.31230187
 C            0.18165977       -3.22238111       -0.58282232
 C            2.31729829       -0.58443805       -0.83508489
 C            1.92886932       -1.84935799       -1.28106570
 C            2.45361700        1.78927603       -1.19386792
 C            2.13412574        0.52444530       -1.66616195
 C            1.19891273        3.64403395       -0.48016451
 C            1.68214103        2.93530514       -1.65462274
 C           -1.05785367        3.04963024        0.39162198
 C           -0.23815980        3.75288291       -0.58273951
 C           -2.61024009        1.15705110        0.13416078
 C           -2.10833704        2.36514198       -0.34037578
 C           -3.59877809       -1.00613674       -0.45033306
 C           -3.32733704        0.37620227       -0.76979619
 C           -2.44329410       -2.80327256       -1.41513961
 C           -3.45233651       -1.78958192       -1.66502803
 C           -0.07357637       -2.86264766       -1.97142683
 C            0.99666261       -1.96838472       -2.38996522
 C           -1.37875359       -2.62703644       -2.38335540
 C            1.35156828        0.41501345       -2.81775384
 C            0.70252665       -0.84316960       -3.14387927
 C            0.55092635        2.71488649       -2.53854055
 C           -0.62023858        3.29167581       -1.90677388
 C           -1.80856933        2.47348916       -1.76076492
 C            0.42741478        1.48422448       -3.16625151
 C           -2.96843032        0.44707334       -2.17913693
 C           -2.94628767       -0.90684334       -2.70041056
 C           -1.68744295       -1.44340583       -3.17573229
 C           -0.67697548       -0.55018922       -3.50717132
 C           -1.97111698        1.34214587       -2.55532084
 C           -0.89044985        0.88130076       -3.31899296
