58
Modified xyz file
 C            1.10173838       -0.16300293        3.92162147
 C            2.35685509       -0.45076029        3.26226428
 C            2.20906125       -1.72146903        2.56360579
 C            0.26432045       -1.34027688        3.77437880
 C            0.82062455       -2.11995096        2.68729119
 C           -1.09948382       -0.87956228        3.65977600
 C            0.32241378        0.97044391        3.45855248
 C           -1.06826184        0.57477406        3.55359959
 C            0.75039193        1.67764830        2.33564561
 C            2.86063008        0.50200739        2.29551350
 C            2.10328898        1.62555290        1.96598632
 C            2.77198148       -1.55476305        1.23231348
 C            3.45263535       -0.27234652        1.22114157
 C            2.01535371       -1.92226940        0.12264457
 C            0.07732482       -2.30535697        1.52404098
 C            0.75099000       -2.49750094        0.31824323
 C           -1.90177371       -1.35595491        2.55110553
 C           -1.30981070       -2.08864913        1.51968808
 C           -1.97482109        0.93890961        2.48017672
 C           -2.75905548       -0.24738526        2.19478176
 C           -0.20289973        2.21711977        1.45852064
 C           -1.49691797        1.69303191        1.41066222
 C            0.20124423        3.06826869        0.44229238
 C            2.55698770        2.40798744        0.90884578
 C            1.61756077        3.24231277        0.18883194
 C            3.66768224        0.35931884        0.00507834
 C            3.43857551        1.79389354       -0.07152637
 C            2.36681619       -1.40732234       -1.13211685
 C            3.11625327       -0.23431400       -1.20374212
 C            1.59952823       -1.73764043       -2.24344126
 C            0.03894203       -2.98127314       -0.76861382
 C            0.53967750       -2.71226248       -2.09919387
 C           -2.02233253       -2.22197567        0.32137971
 C           -1.40195073       -2.80471306       -0.78481631
 C           -3.41585973       -0.31175725        0.98213115
 C           -3.19340395       -1.47951430        0.14750275
 C           -2.19802393        1.66443889        0.19650472
 C           -3.31327309        0.82710259        0.09072774
 C           -0.46383723        2.97869294       -0.84249701
 C           -1.65249405        2.26441733       -0.95038662
 C            1.84399067        3.04688995       -1.23639940
 C            2.91807621        2.09738210       -1.39368221
 C            2.63464133        0.84095250       -2.05774766
 C            0.56617582        2.73956099       -1.84059746
 C            1.10394746       -0.65688614       -3.08358720
 C            1.43202507        0.65600030       -2.74301836
 C            0.42696038        1.64029684       -2.69003803
 C           -0.57595125       -2.28874691       -2.92633816
 C           -1.78901497       -2.41862767       -2.13798986
 C           -0.24046264       -0.99853765       -3.50846005
 C           -3.62041443       -1.10458078       -1.18985398
 C           -3.74263428        0.34734539       -1.20928160
 C           -2.81344195       -1.50086962       -2.32646177
 C           -1.96326576        1.76043385       -2.21393093
 C           -0.87509908        1.32398341       -3.07379352
 C           -1.20478726       -0.00626657       -3.55536918
 C           -3.06414297        0.83643895       -2.38600322
 C           -2.56328025       -0.31066859       -3.12596147
