58
Modified xyz file
 C            1.50476524        0.00414709        4.11931056
 C            0.69980994       -1.19596465        3.99332700
 C            1.34858811       -2.08268199        3.03877805
 C            2.63427042       -0.12937038        3.22069674
 C            2.47801328       -1.36611959        2.47215319
 C            2.73501292        1.10566028        2.46856722
 C            0.70599949        1.12169302        3.64357557
 C            1.44215614        1.76717313        2.57589978
 C           -0.66706752       -0.78016901        3.73722878
 C           -0.62428290        0.62581029        3.36002168
 C           -1.48631203       -1.63610576        3.01300086
 C            0.55175910       -2.85381472        2.20670439
 C           -0.89002501       -2.80877507        2.38984022
 C            0.81043653       -2.84926383        0.77569791
 C            2.66477140       -1.32157957        1.08982858
 C            1.75842798       -1.97864332        0.24052087
 C            3.32028051        1.03644346        1.21533216
 C            3.43806497       -0.27375735        0.59124421
 C            2.83128049        1.92344889        0.17913476
 C            0.77184866        2.11998805        1.40569714
 C            1.52855324        2.41023602        0.26822561
 C           -1.26313540        1.02461979        2.19027735
 C           -0.60402654        1.86834017        1.28050319
 C           -2.42356953       -1.06899924        2.05796115
 C           -2.37391058        0.29425240        1.76934702
 C           -1.50940128       -2.99139308        1.08918557
 C           -0.46323537       -3.00724416        0.09105627
 C           -2.55879654       -2.00430125        0.95110753
 C           -0.67507867       -2.30724655       -1.08837760
 C            1.63251962       -1.59343283       -1.10165341
 C            0.43228726       -1.82288539       -1.78331211
 C            3.51542353       -0.05988070       -0.83867372
 C            3.28586896        1.35781583       -1.07681694
 C            2.60194798       -0.78483190       -1.68951243
 C            2.42870665        1.47437463       -2.24189682
 C            2.21318486        0.12740215       -2.75016102
 C            0.88418011        2.82707560       -0.89141479
 C            1.35633117        2.35654863       -2.18959587
 C           -1.28372671        2.30473703        0.13869921
 C           -0.56548545        2.84902629       -0.92477625
 C           -3.08751167        0.73953725        0.66496105
 C           -2.59611716        1.88948765       -0.06735946
 C           -2.81595732       -1.47281155       -0.30692938
 C           -1.94911797       -1.79030975       -1.36397511
 C           -3.47302066       -0.24715928       -0.32627591
 C           -2.20502296       -1.27502669       -2.63576686
 C            0.25578541       -1.29057466       -3.05800373
 C            1.05701725       -0.15003740       -3.46388538
 C           -1.09271519       -1.06263711       -3.54410312
 C            0.19305416        2.10715079       -3.02451540
 C           -0.97622842        2.58418225       -2.29718353
 C            0.12758671        0.92759225       -3.76146677
 C           -1.16178920        0.31252564       -4.02100128
 C           -3.11602018        1.78451048       -1.42365537
 C           -3.66612240        0.44589365       -1.58242338
 C           -3.09369737       -0.13403236       -2.77783645
 C           -2.22879826        2.03454996       -2.54412053
 C           -2.35775980        0.91482644       -3.46319101
