58
Modified xyz file
 C            1.55900027        0.08255555        3.99885067
 C            0.73853842       -1.10773845        3.87642254
 C            1.33794020       -1.97619531        2.87797740
 C            2.64117710       -0.02514730        3.03866436
 C            2.48607300       -1.27599331        2.31650843
 C            2.67829023        1.20693295        2.27927937
 C            0.74220464        1.21844816        3.60835764
 C            1.45261823        1.93897443        2.56731091
 C           -0.63119719       -0.68101934        3.67373325
 C           -0.59023209        0.72807432        3.31234225
 C           -1.46418879       -1.52058402        2.95463697
 C            0.49610322       -2.69167656        2.02881805
 C           -0.87884202       -2.66969783        2.27829703
 C            0.97020062       -3.04263630        0.76419361
 C            2.68778085       -1.29446753        0.93708242
 C            2.07833144       -2.29651174        0.18698239
 C            3.11059177        1.14627128        0.96423850
 C            3.16054212       -0.14830248        0.29122400
 C            2.57302175        2.10138103        0.01280130
 C            0.72498864        2.46625388        1.50233839
 C            1.41108364        2.80126802        0.33234579
 C           -1.20005120        1.15389360        2.13425338
 C           -0.65641935        2.23878811        1.44780829
 C           -2.39817387       -0.93160729        2.01514503
 C           -2.12317860        0.32592963        1.48677576
 C           -1.81589757       -3.06096565        1.23952223
 C           -2.79972960       -1.99264971        1.11849884
 C            0.04925582       -3.37954014       -0.31427981
 C           -1.32093810       -3.35778399       -0.09036031
 C            1.77728460       -2.06640356       -1.21817124
 C            0.58912733       -2.83279722       -1.55093419
 C            2.83661617        0.07519985       -1.11267304
 C            2.70340508        1.50790931       -1.30674854
 C            1.96782527       -0.79802412       -1.76079736
 C            1.89730044        1.97971986       -2.32950471
 C            0.73198937        3.46116166       -0.68680134
 C            1.05956015        3.13763852       -2.06615470
 C           -1.39706947        2.79613045        0.41413268
 C           -0.70972605        3.57996928       -0.59299582
 C           -2.56414218        0.65418902        0.19756063
 C           -2.37775464        1.95998652       -0.25677477
 C           -2.94675541       -1.68556616       -0.28758954
 C           -2.19147817       -2.67966366       -1.03556448
 C           -2.91756864       -0.35782106       -0.70968712
 C           -0.26867385       -2.35641419       -2.53188548
 C           -1.70634279       -2.33733460       -2.29141530
 C            1.11111036       -0.32417866       -2.76247428
 C            1.11096120        1.03220257       -3.10205495
 C            0.08092394       -1.13622931       -3.23931399
 C           -0.18389279        2.97229229       -2.79888238
 C           -1.27844198        3.24831930       -1.88859428
 C           -2.29174359        2.22754341       -1.68357795
 C           -0.14193088        1.68366413       -3.46443962
 C           -2.83308673       -0.12183699       -2.08109180
 C           -2.23774581       -1.14270338       -2.92467301
 C           -1.15987205       -0.51763936       -3.66841269
 C           -2.37894984        1.16517959       -2.57276480
 C           -1.29982257        0.91925249       -3.52748465
