58
Modified xyz file
 C            1.31399716       -0.08690698        3.73706688
 C            2.57970131       -0.30349271        3.06382761
 C            2.56492697       -1.64871422        2.51810529
 C            0.49018661       -1.26901201        3.53182541
 C            1.23206381       -2.19932393        2.71061217
 C           -0.80701507       -0.83276406        3.07217031
 C            0.52209009        1.07775179        3.38101822
 C           -0.81937548        0.62316567        3.06191045
 C            1.09066675        2.08061884        2.61026997
 C            2.97100556        0.60313420        1.99901548
 C            2.33447803        1.83124269        1.88435102
 C            3.09688471       -1.58985136        1.16677355
 C            3.17829496       -0.18504907        0.79545503
 C            2.60374008       -2.49360124        0.24042527
 C            0.60854790       -2.80342239        1.62173626
 C            1.44263501       -3.28173067        0.61088815
 C           -1.42735266       -1.50991223        2.02944861
 C           -0.74181781       -2.52169480        1.33739589
 C           -2.52200715       -0.88616172        1.43597995
 C           -1.56847039        1.27905217        2.08370131
 C           -2.60024732        0.56579809        1.47360341
 C            0.23240559        2.86619602        1.74187721
 C           -1.07095124        2.44186946        1.47825678
 C            2.18209737        2.41558543        0.56348248
 C            1.06402341        3.33884935        0.64718518
 C            2.62288376        0.25375399       -0.40932118
 C            2.32114438        1.60887033       -0.56656631
 C            2.35234634       -2.03642310       -1.11198165
 C            2.14495525       -0.67912686       -1.33791544
 C            0.87774029       -3.79071030       -0.61991011
 C            1.43839352       -2.99417427       -1.70454332
 C           -1.36270981       -3.13323723        0.24390571
 C           -0.55957462       -3.79581624       -0.76614747
 C           -3.01411843       -1.33182376        0.14444239
 C           -2.42944919       -2.43703967       -0.45647770
 C           -3.16115269        1.01669283        0.21216540
 C           -3.32183470       -0.14852701       -0.64636916
 C           -1.74608422        3.00431900        0.39484229
 C           -2.73485252        2.22193557       -0.32578273
 C            0.45622080        3.76314113       -0.52481459
 C           -0.99528570        3.77194455       -0.58727399
 C            1.78854813        2.04928997       -1.77367314
 C            0.95125279        3.23957611       -1.78661464
 C            1.26456151       -0.27327091       -2.34685175
 C            1.19825865        1.07788087       -2.67655200
 C            0.33527008       -2.49924886       -2.50135528
 C           -0.86750026       -3.17462230       -2.04202547
 C           -2.07805705       -2.38988391       -1.87023576
 C            0.26141130       -1.14150123       -2.79892280
 C           -2.93045628       -0.08623716       -1.97912781
 C           -2.18105566       -1.18747574       -2.55960337
 C           -0.98131380       -0.62351589       -3.15736605
 C           -2.42480663        2.31038164       -1.74479132
 C           -1.39303463        3.31953024       -1.91075218
 C           -0.19010451        2.97824630       -2.64659822
 C           -0.04980877        1.63382228       -3.17619942
 C           -2.37669738        1.14977500       -2.51120156
 C           -1.16559816        0.81184831       -3.25276329
