58
Modified xyz file
 C            1.51828478        0.08974381        4.23757027
 C            0.70831123       -1.10873268        4.13207275
 C            1.40754995       -2.04522597        3.26726287
 C            2.58130308       -0.00765119        3.25185091
 C            2.55217363       -1.34712958        2.69417750
 C            2.45923856        1.12749975        2.34968924
 C            0.68459563        1.21708176        3.86604151
 C            1.40920196        1.98754418        2.87536323
 C           -0.64794354       -0.70958738        3.78538811
 C           -0.63306791        0.71626027        3.50809522
 C           -1.39719177       -1.54481286        2.97422823
 C            0.65236693       -2.90383524        2.47513572
 C           -0.79650017       -2.78401509        2.50321423
 C            1.04838626       -3.15997805        1.09725377
 C            2.84891916       -1.50395657        1.34730341
 C            2.15820818       -2.51814813        0.56786641
 C            2.55030791        0.91482835        0.96980138
 C            2.98766355       -0.32132028        0.50657897
 C            1.91162062        1.79546699        0.08856456
 C            0.66384980        2.72164830        1.97360979
 C            1.15541242        2.83838459        0.61945719
 C           -1.23877043        1.21845932        2.35361640
 C           -0.75582641        2.42165867        1.84774710
 C           -2.15157779       -0.97230407        1.87126691
 C           -1.98045062        0.36977166        1.51856285
 C           -1.29308307       -3.03876827        1.16468127
 C           -0.15778208       -3.27033724        0.29025133
 C           -2.21068656       -1.97089237        0.81899602
 C           -0.19115667       -2.70877508       -0.98529664
 C            2.11719355       -2.05604812       -0.80697120
 C            2.68750714       -0.71858211       -0.85238543
 C            1.00685787       -2.32186252       -1.60118918
 C            1.76209332        1.46691538       -1.26982263
 C            2.13662793        0.19976011       -1.73837535
 C            1.04095663        2.32965782       -2.10506951
 C            0.04013475        3.35300449       -0.14108578
 C           -1.15614909        2.85463292        0.52540019
 C            0.09764198        3.27158945       -1.51904696
 C           -2.31044080        0.76993102        0.21076674
 C           -2.05302097        2.08593652       -0.20522274
 C           -2.22629265       -1.52645233       -0.49054773
 C           -1.39743886       -2.15072377       -1.42320811
 C           -2.62923139       -0.21996220       -0.73148889
 C           -1.52891302       -1.79718839       -2.76147956
 C            0.94366118       -1.64800522       -2.81674795
 C            1.53723811       -0.31991117       -2.88641235
 C           -0.31725273       -1.60597281       -3.52914848
 C            0.44802562        1.82720944       -3.33546789
 C            0.68390287        0.51236976       -3.71392880
 C           -0.40830089       -0.32042468       -4.20064902
 C           -1.15868105        3.12014719       -2.22678749
 C           -2.24737790        2.44722129       -1.53757197
 C           -0.89012921        2.39111500       -3.45003058
 C           -2.95287938        0.12145513       -2.03848410
 C           -2.44378471       -0.71965682       -3.10823863
 C           -1.77888499        0.14086141       -4.07357690
 C           -2.82258477        1.49557718       -2.46255264
 C           -2.02383516        1.51452842       -3.68102759
