58
Modified xyz file
 C            1.46991639        0.02006126        4.29473086
 C            0.67519195       -1.18983793        4.19678117
 C            1.41016773       -2.14103224        3.38459028
 C            2.62130976       -0.13580909        3.42145744
 C            2.59300012       -1.46915876        2.86895601
 C            2.61886672        0.97512104        2.49766734
 C            0.66838768        1.11949808        3.77920353
 C            1.42998490        1.77469692        2.74587592
 C           -0.65998984       -0.80874993        3.77507233
 C           -0.63276670        0.60463459        3.42927359
 C           -1.36964718       -1.66766225        2.94735976
 C            0.72947560       -2.76688917        2.26389105
 C           -0.65323461       -2.68374335        2.17756808
 C            2.59372682       -1.61356614        1.42377501
 C            1.51794486       -2.52087924        1.06864722
 C            2.97766146        0.77418611        1.16927234
 C            2.82252724       -0.50707887        0.60213620
 C            2.79158583        1.87998581        0.35046713
 C            0.76939600        2.29349774        1.63539153
 C            1.58880580        2.66810375        0.57709367
 C           -1.22601553        1.01036090        2.23484104
 C           -0.54220207        1.87090283        1.35254483
 C           -2.36442196       -1.09570174        2.05871593
 C           -2.30859759        0.26722972        1.76572192
 C           -1.27380530       -2.74469915        0.86501495
 C           -2.53616165       -2.04227911        0.97153024
 C            0.87997164       -2.33062392       -0.15349802
 C           -0.49762560       -2.55750518       -0.27708458
 C            2.47730046       -0.62525717       -0.75221728
 C            1.54032409       -1.59445903       -1.13481469
 C            2.96270045        1.73159393       -1.07553587
 C            2.80111821        0.40926382       -1.62722163
 C            1.00644506        2.96326586       -0.71267696
 C            1.98664808        2.59136491       -1.71835447
 C           -1.11838610        2.17135809        0.10589020
 C           -0.33122565        2.66702370       -0.94184286
 C           -3.02417854        0.73687077        0.67428652
 C           -2.43011808        1.77266623       -0.14986312
 C           -3.14538213       -1.59966162       -0.19024419
 C           -3.64119398       -0.23512013       -0.21297374
 C           -1.13790199       -2.23995477       -1.47930499
 C           -2.47616812       -1.83111358       -1.46194521
 C            1.02588432       -1.60742109       -2.42719926
 C           -0.36261568       -1.98940717       -2.60867038
 C            2.07431962        0.55643406       -2.87652720
 C            1.52110048        1.90936301       -2.90920340
 C            1.31531733       -0.51128574       -3.33632653
 C           -0.75628387        2.52789583       -2.26592427
 C            0.19596604        2.09404832       -3.28087962
 C           -2.87245630        1.55479110       -1.51961926
 C           -3.52647953        0.25889704       -1.57132294
 C           -2.93414364       -0.79475424       -2.37870485
 C           -2.03690264        1.91424513       -2.56492003
 C           -0.91020196       -1.18407235       -3.68693157
 C            0.11782296       -0.25100605       -4.11792872
 C           -0.45082846        1.08247763       -4.09455932
 C           -2.13122360       -0.43541818       -3.45213019
 C           -1.83270929        0.97430898       -3.65933093
