58
Modified xyz file
 C            1.47796339       -0.18874930        4.44817522
 C            0.58190740       -1.33056648        4.52302576
 C            1.13294961       -2.37769847        3.68614744
 C            2.52807583       -0.50196064        3.49463291
 C            2.38248752       -1.89343362        3.11435419
 C            2.51000623        0.51354334        2.45131830
 C            0.72507940        0.92435547        3.90611389
 C            1.47247706        1.47324004        2.78403173
 C           -0.69344736       -0.93953594        3.94395933
 C           -0.63250701        0.47626847        3.64885488
 C            0.07837714       -2.82555984        2.78831425
 C           -0.99911364       -1.84922413        2.85423305
 C            0.44465218       -3.33001082        1.55153646
 C            2.68730956       -2.25257784        1.80993214
 C            1.84104137       -3.23436388        1.15540274
 C            2.65691886        0.12476205        1.12175237
 C            2.96279357       -1.20639301        0.83001275
 C            2.13425902        0.93907938        0.11185374
 C            0.73988345        2.03307903        1.74402960
 C            1.26210459        1.98405111        0.45039404
 C           -1.22319890        0.93182070        2.48039419
 C           -0.64371114        2.03959570        1.87972009
 C           -1.52494737       -1.31957842        1.67372724
 C           -1.89262531        0.02903966        1.64653331
 C           -0.35881787       -2.99659537        0.38718571
 C           -1.33129362       -1.99642652        0.46665715
 C            1.88150019       -2.96756583       -0.26829300
 C            2.62780875       -1.74153621       -0.47993693
 C            0.52184999       -3.01729495       -0.76723989
 C            2.19606276        0.49504846       -1.21032854
 C            2.16181865       -0.87645203       -1.46027198
 C            1.80298905        1.35839661       -2.22648018
 C            0.56773251        2.66167866       -0.55889739
 C            0.93512712        2.47231658       -1.89088624
 C           -1.38590918        2.67184543        0.90369906
 C           -0.68724724        3.18955044       -0.25481725
 C           -2.49727866        0.54875135        0.49863117
 C           -2.51819523        1.94027848        0.38059514
 C           -1.77018027       -1.40575160       -0.72202785
 C           -2.53664435       -0.23752754       -0.66030323
 C            0.19915753       -2.18814019       -1.82728824
 C            1.19807745       -1.36336491       -2.34341705
 C           -1.11118644       -1.74078442       -1.91174230
 C            1.32688007        0.78377537       -3.47518715
 C            0.89773483       -0.60268248       -3.46729067
 C           -0.05087266        2.61240506       -2.95902883
 C            0.22431659        1.59578009       -3.96101741
 C           -1.69133627        3.33577758       -1.29608014
 C           -2.85716099        2.56383442       -0.88111478
 C           -1.36588175        2.94901747       -2.65232660
 C           -3.08241822        0.28124659       -1.83777071
 C           -3.24485265        1.71596868       -1.98261876
 C           -2.46798183        2.12865515       -3.13892108
 C           -1.50533713       -1.16282050       -3.11111939
 C           -0.46285822       -0.64659293       -3.98209545
 C           -0.83734858        0.69803751       -4.38236735
 C           -2.59683677       -0.21250430       -3.11211060
 C           -2.19015300        0.93449333       -3.91423885
