58
Modified xyz file
 C            1.07809163       -0.10130477        4.18607882
 C            2.30499477       -0.30449434        3.43738130
 C            2.17498861       -1.55389111        2.70818195
 C            0.19918560       -1.22863276        3.91142871
 C            0.81186559       -2.01935635        2.86311224
 C           -1.13266794       -0.71340557        3.69740772
 C            0.31449480        1.11750154        3.97684219
 C           -1.07385065        0.73713718        3.79701897
 C            0.84032490        2.13596028        3.18823765
 C            2.73309925        0.71473788        2.49670988
 C            2.13106102        1.96512459        2.52754230
 C            2.66723111       -1.34166782        1.35904817
 C            2.97890121        0.06977730        1.21159643
 C            2.01522057       -1.97109726        0.30933359
 C            0.10116710       -2.32858861        1.70532199
 C            0.83779738       -2.67729650        0.57585217
 C           -1.81310843       -1.03968395        2.45894244
 C           -1.21847749       -1.88281107        1.52668839
 C           -1.81772191        1.28418817        2.67511920
 C           -2.44322151        0.16962585        1.97675515
 C           -0.03087473        2.85635682        2.27034690
 C           -1.28152222        2.33299905        1.93027013
 C            2.10692288        2.74889020        1.30847434
 C            0.81795732        3.41584661        1.23303068
 C            2.63477867        0.71777688        0.01952731
 C            2.33086201        2.07907762        0.03889442
 C            2.19001348       -1.43859131       -0.96185378
 C            2.25870311       -0.04674935       -1.09234562
 C            1.79543653       -2.21675515       -2.04298758
 C            0.14806326       -3.23441863       -0.49293736
 C            0.77679801       -3.21892346       -1.80146410
 C           -1.76864310       -1.92261968        0.24296080
 C           -1.23651717       -2.83712155       -0.66479069
 C           -2.69238966        0.28933096        0.61443775
 C           -2.51107842       -0.82289077       -0.21673250
 C           -1.81237269        2.57713815        0.66385667
 C           -2.66184763        1.56435112        0.05653213
 C            0.37015224        3.35633268       -0.14346515
 C            1.35418751        2.59906679       -0.90236945
 C           -0.97323321        3.13216227       -0.39179025
 C            1.60791905        0.58124647       -2.16114396
 C            0.92675490        1.77837817       -1.94015448
 C            1.49165167       -1.57389072       -3.30565015
 C            1.35201514       -0.13274784       -3.32608473
 C           -0.26573117       -3.04334092       -2.79541473
 C           -1.49090723       -2.69578888       -2.08840990
 C            0.25656912       -2.15166957       -3.81545696
 C           -2.82476533       -0.70308801       -1.57256337
 C           -2.28349339       -1.64740316       -2.53633572
 C           -2.55760343        1.71458554       -1.38253276
 C           -1.35144675        2.48664735       -1.63569760
 C           -0.36426794        1.94279072       -2.45507971
 C           -2.81468790        0.61621344       -2.18835479
 C            0.15077783        0.17726143       -4.07613842
 C           -0.57644187       -1.06535831       -4.29073664
 C           -1.90555843       -0.90174090       -3.72918144
 C           -0.77587785        1.14658972       -3.52113596
 C           -2.07967818        0.50823352       -3.43612258
