58
Modified xyz file
 C            1.05585753       -0.03329457        3.98507690
 C            2.31518124       -0.38897096        3.36655325
 C            2.20692545       -1.76596752        2.91246654
 C            0.20986101       -1.21569303        3.94936572
 C            0.80710154       -2.13561259        3.00238931
 C           -1.14194576       -0.76918760        3.71899697
 C            0.28553034        1.05621439        3.41386997
 C           -1.10645172        0.67649743        3.53483439
 C            0.71538251        1.65445438        2.23101195
 C            2.77663974        0.39625038        2.24178155
 C            2.04915641        1.50250987        1.81778583
 C            2.86133573       -1.86358339        1.62156089
 C            3.28244512       -0.52061954        1.23439794
 C            2.29141485       -2.68673087        0.66512525
 C            0.12766625       -2.48400793        1.83037509
 C            0.86953457       -3.00114964        0.76760570
 C           -1.86299874       -1.30683974        2.58611978
 C           -1.18113643       -2.02773717        1.60078854
 C           -2.01174272        0.98307795        2.44104007
 C           -2.74661968       -0.23860118        2.16978192
 C           -0.23617530        2.20664161        1.36011286
 C           -1.55180342        1.73390161        1.35918817
 C            0.18211711        3.02369374        0.32045974
 C            2.45776080        2.08465680        0.62666976
 C            1.58739302        3.03881475       -0.02402248
 C            3.23934091       -0.12642338       -0.10766926
 C            3.03092678        1.22229059       -0.39852034
 C            2.58426237       -2.41669958       -0.72523959
 C            3.00399235       -1.07718050       -1.10086277
 C            0.31215795       -2.97559016       -0.57215011
 C            1.40087309       -2.74769812       -1.49763157
 C           -1.71891123       -2.05247627        0.30630288
 C           -0.88891357       -2.31634264       -0.78725316
 C           -3.36115810       -0.35648288        0.94035928
 C           -2.96768324       -1.46820499        0.09454647
 C           -2.27711593        1.69087000        0.16019031
 C           -3.35021048        0.79892615        0.06849644
 C           -0.57596580        3.02974022       -0.91708292
 C           -1.77714834        2.32331109       -0.99042988
 C            1.70025258        2.83414729       -1.45647546
 C            2.44938989        1.60852818       -1.67606217
 C            0.37401732        2.94643252       -2.02238379
 C            2.25439316       -0.70733041       -2.29283669
 C            1.23363213       -1.72501944       -2.50637672
 C            1.93388307        0.63047558       -2.52662001
 C           -1.12435559       -1.69434549       -2.02278329
 C           -0.04733953       -1.30749701       -2.83715156
 C           -3.37102673       -1.11275262       -1.25484702
 C           -3.76135676        0.29143818       -1.22216829
 C           -2.41341185       -1.26355438       -2.33034136
 C           -2.27279948        1.99280857       -2.25601364
 C           -3.23579294        0.92086130       -2.40849812
 C           -2.59530387       -0.11669593       -3.20115971
 C            0.06119345        2.14833921       -3.10973523
 C            0.82092319        0.92043228       -3.32388505
 C           -0.13834045       -0.13919824       -3.58524173
 C           -1.33712064        1.85072432       -3.35536228
 C           -1.42771314        0.47544939       -3.81844930
