58
Modified xyz file
 C            1.19895944       -0.05898700        3.88133587
 C            2.40788924       -0.43774864        3.18026392
 C            2.23508117       -1.80106760        2.70226411
 C            0.35095685       -1.23735668        3.94287096
 C            0.85525960       -2.17652658        2.96068700
 C           -1.01548248       -0.78571593        3.82815272
 C            0.39148058        1.01861536        3.33584583
 C           -0.98805085        0.64734927        3.56043027
 C            0.75379024        1.58974918        2.11598860
 C            2.82038664        0.36176413        2.04726034
 C            2.08267156        1.48634942        1.68854630
 C            2.73707717       -1.86239529        1.33788586
 C            3.23825533       -0.54343104        0.99052566
 C            2.01376885       -2.57099107        0.39622117
 C            0.04956917       -2.56410016        1.88862894
 C            0.66793631       -3.02045854        0.72323847
 C           -1.86167234       -1.38340411        2.81623659
 C           -1.32598584       -2.28265429        1.88973244
 C           -1.95715505        0.90611847        2.51545993
 C           -2.72084300       -0.31501539        2.34049327
 C           -0.23903790        2.01640506        1.21692865
 C           -1.57475007        1.61466568        1.38194031
 C            0.13102991        2.73080996        0.07197660
 C            2.45577411        2.11033135        0.50847070
 C            1.48144671        2.89893136       -0.21502101
 C            3.16079855       -0.07714775       -0.32263688
 C            3.16447966        1.31045275       -0.47588705
 C            1.99990711       -2.10512978       -0.97731397
 C            2.58574266       -0.88756000       -1.31944658
 C           -0.07933659       -3.09964879       -0.51840310
 C            0.70767024       -2.44846266       -1.55180245
 C           -2.09557705       -2.59593395        0.76834626
 C           -1.44734777       -2.91362207       -0.49384482
 C           -3.40472599       -0.50023704        1.14926625
 C           -3.25633686       -1.77357555        0.46566336
 C           -2.43115660        1.59605452        0.28152590
 C           -3.33925993        0.54234498        0.13622467
 C           -0.80970428        2.97155535       -0.92959853
 C           -2.13061419        2.37916201       -0.82474978
 C           -0.41007472        2.92354260       -2.33273147
 C            1.91818026        2.93644916       -1.60177449
 C            2.93408889        1.90759368       -1.77320701
 C            0.93215365        2.77096272       -2.65127378
 C            2.23671708       -0.34324041       -2.55721595
 C            2.52239716        1.04679000       -2.85476050
 C            1.33516090        1.62782345       -3.45858258
 C            0.10679517       -1.55850420       -2.44150488
 C            0.93207377       -0.66264897       -3.12092839
 C            0.38179013        0.55333851       -3.69642467
 C           -2.06821255       -2.11084815       -1.53320597
 C           -3.26500722       -1.51773232       -0.96523923
 C           -3.49026652       -0.09949701       -1.16302445
 C           -1.27662277       -1.34149543       -2.38712829
 C           -2.50461850        1.89141684       -2.14055695
 C           -1.38412928        2.10809279       -3.03515927
 C           -0.97229452        0.81483587       -3.55668156
 C           -2.90978127        0.50572149       -2.26681756
 C           -1.83124394       -0.19208959       -2.95748980
