58
Modified xyz file
 C            1.01126122       -0.03817114        4.71808608
 C            0.29398820       -1.20658240        4.23250811
 C            1.21106208       -2.01069161        3.46261072
 C            2.33056588       -0.04629726        4.11183240
 C            2.46720303       -1.28034152        3.36403677
 C            2.50018401        1.21081532        3.41230645
 C            0.31170179        1.14600207        4.24190564
 C            1.24982791        1.95481070        3.50537728
 C           -0.90741752       -0.74405230        3.57693667
 C           -0.88321429        0.70845365        3.55815452
 C           -1.36247238       -1.38164518        2.42692737
 C            0.82004585       -2.40297227        2.11798149
 C           -0.45826462       -2.11830573        1.64067461
 C            2.82419464       -1.22186817        1.95665463
 C            1.94816431       -2.14299933        1.24819058
 C            2.88651542        1.19761671        2.01217755
 C            3.15253539       -0.00629256        1.35179994
 C            0.89066128        2.38177213        2.16186675
 C            2.07004381        2.19823647        1.34322762
 C           -1.29258165        1.33916245        2.38319636
 C           -0.35418112        2.05270225        1.61557220
 C           -2.40285411       -0.73207832        1.77749707
 C           -2.34688742        0.72201717        1.72549498
 C           -2.81654604       -1.18914786        0.47053131
 C           -0.66831414       -2.19908979        0.25920244
 C           -1.96196374       -2.02707686       -0.23498050
 C            1.71568321       -1.92285224       -0.10419307
 C            0.42513248       -2.08454802       -0.61466641
 C            3.18931813        0.02422108       -0.03846462
 C            2.58856611       -1.07787219       -0.77314669
 C            1.90655326        2.09798008       -0.02735473
 C            2.75464048        1.23481811       -0.70948296
 C           -0.49282645        2.11601418        0.21703309
 C            0.64555335        2.35052254       -0.56877753
 C           -2.67016394        1.10866824        0.37112995
 C           -3.36711870       -0.02509954       -0.20279529
 C           -1.70562690        1.75434682       -0.39000108
 C           -3.50290435       -0.08192961       -1.57634104
 C           -2.19445205       -2.19162532       -1.59694758
 C           -3.20839575       -1.35135615       -2.21209412
 C            0.19827203       -1.87830933       -1.98008366
 C           -1.05431837       -2.20785875       -2.49498204
 C            2.21812696       -0.57353485       -2.08223130
 C            2.42477286        0.87029158       -2.07156144
 C            1.08795017       -1.07993351       -2.71999025
 C            0.53079582        2.39077334       -1.95575586
 C            1.51231645        1.66211724       -2.75070736
 C           -1.81081373        1.69765710       -1.78461456
 C           -2.83190209        0.93458662       -2.36909286
 C           -0.76790479        2.18598958       -2.56787618
 C           -2.80329130       -1.07454165       -3.57641583
 C           -1.48855306       -1.65966344       -3.76845980
 C           -2.65321764        0.36593476       -3.69722952
 C            0.63888019       -0.38243875       -3.84366491
 C            0.80529032        1.05744415       -3.86089812
 C           -0.52504159        1.62975871       -3.88988434
 C           -0.66762220       -0.65522029       -4.40273169
 C           -1.41095668        0.60168291       -4.39748724
