58
Modified xyz file
 C            1.01101730       -0.11099575        4.25169135
 C            2.30490208       -0.28701986        3.61795187
 C            2.28914353       -1.56870992        2.93542469
 C            0.20338943       -1.28224104        3.94221894
 C            0.92560136       -2.06939191        2.96434191
 C           -1.12612677       -0.83059295        3.61623978
 C            0.22181714        1.06841353        3.93538409
 C           -1.13206285        0.62569456        3.66236246
 C            0.76896208        2.07634747        3.14856321
 C            2.76554087        0.71159871        2.67113746
 C            2.11939885        1.93899125        2.61042729
 C            2.92926514       -1.39785309        1.64392102
 C            3.11262203        0.02964317        1.42952977
 C            2.46865662       -2.16537126        0.59010000
 C            0.32596707       -2.43067246        1.75474019
 C            1.17396597       -2.81924875        0.72290370
 C           -1.70177095       -1.22445041        2.34644396
 C           -0.98555793       -2.02316429        1.44933592
 C           -1.80641557        1.09839125        2.46271240
 C           -2.39514792       -0.06371794        1.82872736
 C           -0.04960747        2.70458426        2.12077948
 C           -1.20356253        2.06645873        1.65928099
 C            2.16511338        2.67737805        1.36374838
 C            0.86215826        3.29024235        1.16604744
 C            2.76781395        0.60409610        0.19909677
 C            2.50280291        1.96630230        0.14139171
 C            2.49383860       -1.59469268       -0.73877215
 C            2.41124089       -0.21114393       -0.88169751
 C            0.64754317       -2.99080144       -0.61419351
 C            1.63153234       -2.43845722       -1.53548361
 C           -1.44672100       -2.07693591        0.12292752
 C           -0.69902575       -2.75153489       -0.85298865
 C           -2.62834817       -0.01550018        0.47051320
 C           -2.45670539       -1.18303331       -0.26137289
 C           -1.55655256        2.13009681        0.29884798
 C           -2.49376328        1.20302361       -0.18572634
 C            0.54081173        3.17636865       -0.23407327
 C            1.62709227        2.46998562       -0.89474597
 C           -0.75279266        2.84810394       -0.60730049
 C            1.73246498        0.32626816       -1.98931380
 C            1.30309382        1.66081783       -1.97921633
 C            1.18807398       -1.95945805       -2.75356833
 C            1.29435672       -0.52950195       -3.00784936
 C           -1.11099240       -2.72537301       -2.18475123
 C           -0.12607462       -2.38354218       -3.19843652
 C           -2.97933885       -1.21877725       -1.54684336
 C           -2.34682984       -2.05861768       -2.53805048
 C           -2.93691117        1.28048016       -1.50356508
 C           -3.31050142        0.04609868       -2.18244470
 C           -0.93301612        2.64607794       -1.96876900
 C            0.15869881        2.01591429       -2.69557857
 C           -2.17174948        2.07217006       -2.43788161
 C            0.16199640       -0.14851337       -3.83935657
 C           -0.67919338       -1.32374035       -4.01852419
 C           -2.09803116       -1.24621431       -3.72091372
 C           -2.69964853        0.05483971       -3.50231885
 C           -0.41666787        1.10160207       -3.66367783
 C           -1.86576603        1.23927810       -3.58937692
