58
Modified xyz file
 C            1.19794105        0.04363003        5.25146076
 C            0.34498862       -1.12774404        5.17317575
 C            1.08918835       -2.16307545        4.47958939
 C            2.41083511       -0.23089099        4.49294566
 C            2.29978060       -1.56216212        3.93968793
 C            2.61308371        0.87546894        3.58275260
 C            0.51082541        1.13409120        4.58280177
 C            1.48443115        1.78468171        3.73650893
 C           -0.80712500       -0.78751699        4.35140818
 C           -0.69358060        0.60433632        3.96087150
 C            0.28489600       -2.59370259        3.35231156
 C           -0.91481916       -1.77914706        3.29732389
 C            2.27207299       -1.73299809        2.49213200
 C            1.13761998       -2.58383166        2.18176836
 C            2.75799723        0.61776568        2.15492953
 C            2.55156408       -0.66123772        1.63121635
 C            1.07265523        2.16309120        2.40260844
 C            2.11585301        1.73555790        1.49607710
 C           -0.98072564        0.93488512        2.63514669
 C           -0.23900813        1.93796566        1.99807374
 C           -1.32860635       -1.36170300        2.03510456
 C           -1.63464517       -0.01604295        1.83801346
 C            0.53034858       -2.38327567        0.95611298
 C           -0.82292412       -2.05158750        0.94053268
 C            2.13433626       -0.76246043        0.29433232
 C            1.30885600       -1.83510441       -0.05163040
 C            1.75001698        1.59692895        0.16831966
 C            2.05402222        0.40524037       -0.48008670
 C           -0.50885148        2.16373728        0.65475487
 C            0.57975312        2.23242422       -0.22151299
 C           -2.04151511        0.36932470        0.55639611
 C           -1.69763875        1.65434315        0.15211836
 C           -1.36687919       -1.76699335       -0.30338067
 C           -2.15647742       -0.62159423       -0.43079871
 C            0.75996604       -1.85397706       -1.32546082
 C           -0.60319665       -2.13274460       -1.40115634
 C            1.63903657        0.29061001       -1.81095921
 C            1.29083479       -0.98023925       -2.26593249
 C            0.30709756        2.28191264       -1.58219997
 C            1.01834989        1.39922511       -2.40510225
 C           -2.05462352        2.06100835       -1.12194608
 C           -0.99538703        2.62354982       -1.93091039
 C           -2.56611586       -0.24819918       -1.72085611
 C           -2.73002316        1.11432316       -1.98423974
 C           -1.21275364       -2.07071742       -2.64045563
 C           -2.31841786       -1.13978511       -2.77521811
 C            0.86783495       -1.12984331       -3.58402829
 C           -0.35712256       -1.87924272       -3.79311595
 C            0.72501280        1.34314492       -3.76893635
 C            0.79519540        0.05136528       -4.42394944
 C           -1.41483561        2.52604241       -3.31170209
 C           -2.57246143        1.64089474       -3.33476773
 C           -0.45987768        2.02229574       -4.27172950
 C           -2.33616330       -0.68900495       -4.16150665
 C           -1.14371771       -1.21140320       -4.81211018
 C           -0.36462265       -0.08495333       -5.29264807
 C           -2.40286553        0.72750623       -4.44398563
 C           -1.17941339        1.10582752       -5.13814864
