58
Modified xyz file
 C            1.65993856       -0.03215559        3.82827058
 C            0.80904841       -1.20205568        3.71467196
 C            1.37551997       -2.06949254        2.69915363
 C            2.66187710       -0.10938542        2.77825144
 C            2.51363014       -1.37933866        2.10794951
 C            2.56542962        1.08949326        1.98089562
 C            0.83817109        1.13662600        3.56894695
 C            1.46030254        1.88572052        2.49933860
 C           -0.55595020       -0.74852023        3.55079477
 C           -0.52900499        0.69783401        3.38209998
 C           -1.40176865       -1.49742090        2.74824984
 C            0.52668956       -2.78489817        1.85637330
 C           -0.85830825       -2.58996995        1.94662121
 C            1.07207789       -3.28646353        0.67703676
 C            2.67589385       -1.44177311        0.72768431
 C            2.21080502       -2.59287054        0.09656032
 C            2.72296844        1.00075776        0.60057702
 C            2.82947554       -0.25845805       -0.01567553
 C            2.30357761        2.09748994       -0.14890575
 C            0.64675140        2.54648925        1.58601862
 C            1.22648846        2.91803157        0.37704689
 C           -1.27753011        1.27685784        2.35946492
 C           -0.74040747        2.36160094        1.64440963
 C           -2.39478816       -0.81148694        1.94105138
 C           -2.37896955        0.57681642        1.85096103
 C           -1.70506930       -2.72361232        0.76440181
 C           -2.59251515       -1.57652793        0.72218820
 C            0.19612075       -3.68918225       -0.40738442
 C           -1.16755217       -3.20228605       -0.41774945
 C            2.08104176       -2.63905769       -1.34800084
 C            0.82261951       -3.30113220       -1.65853701
 C            2.90272026       -0.33177408       -1.40907327
 C            2.46444206       -1.53708590       -2.09608837
 C            2.11764770        1.97969532       -1.58302249
 C            2.49518052        0.80846946       -2.21647131
 C            0.38691312        3.32728614       -0.73461751
 C            0.84589556        2.61235229       -1.92198461
 C           -1.54670302        3.04480372        0.73641444
 C           -0.97109374        3.50189364       -0.52091016
 C           -3.14542727        1.15267534        0.84420199
 C           -2.86373801        2.51560469        0.45007619
 C           -2.78968819       -0.88048732       -0.46822644
 C           -3.37867605        0.37684580       -0.36729920
 C           -1.36466715       -2.44145215       -1.64266419
 C           -0.16963056       -2.60062185       -2.45715442
 C           -2.01690223       -1.20663622       -1.59656231
 C            1.63602174       -1.13198013       -3.21977447
 C            1.67401548        0.31717910       -3.30325090
 C            0.24288779       -1.55115203       -3.26301809
 C           -0.07120397        1.96365002       -2.76011906
 C           -1.73996598       -0.24577373       -2.58472299
 C            0.30908907        0.79612390       -3.41747983
 C           -0.57563240       -0.35545609       -3.34098767
 C           -1.88234434        3.13729375       -1.58507928
 C           -3.09570493        2.62093803       -0.97950234
 C           -3.30999343        1.27798983       -1.49229310
 C           -1.43623174        2.17898244       -2.57867575
 C           -2.31377353        1.01900627       -2.50448015
