58
Modified xyz file
 C            1.48629943        0.13996188        3.99232171
 C            0.67886236       -1.05897936        3.86479826
 C            1.31995054       -1.92134366        2.89193744
 C            2.47980794        0.11879381        2.93120876
 C            2.37361034       -1.14943453        2.24832248
 C            2.32237192        1.32640958        2.15401729
 C            0.62170515        1.27962630        3.75264865
 C            1.28408618        2.12865172        2.78359345
 C           -0.69267916       -0.65859079        3.62637985
 C           -0.70570846        0.78286346        3.43046988
 C           -1.46647206       -1.45471155        2.80030844
 C            0.53202013       -2.74042617        2.08887502
 C           -0.86234207       -2.61192095        2.14912751
 C            1.11924471       -3.22598536        0.92438596
 C            2.46465756       -1.19048175        0.85986641
 C            2.09884949       -2.38707785        0.24981885
 C            2.35171922        1.25199452        0.76354391
 C            2.39655615        0.00197955        0.11981526
 C            1.92195792        2.36885502        0.04818940
 C            0.48569885        2.90697063        1.96174919
 C            0.95734430        3.19822957        0.62150127
 C           -1.37488132        1.33495524        2.33562344
 C           -0.92388355        2.55962746        1.83453072
 C           -2.34885065       -0.82401579        1.83518728
 C           -2.23418144        0.53783312        1.56783780
 C           -1.68184543       -2.91147986        0.98120755
 C           -2.53225518       -1.75345541        0.72973708
 C            0.29668387       -3.85798730       -0.08865895
 C           -1.13094619       -3.60550479       -0.08569085
 C            1.80092874       -2.41379921       -1.16971137
 C            0.81957637       -3.46424334       -1.38588195
 C            2.22459515       -0.05666914       -1.26918817
 C            1.68717088       -1.20860252       -1.85596514
 C            2.08003455        2.38275783       -1.33111253
 C            2.29404648        1.11841663       -2.01036395
 C            1.14783110        3.16361609       -2.12798808
 C           -0.21057452        3.57742101       -0.15640229
 C           -1.37087274        3.03116779        0.53287170
 C           -0.13200136        3.51551399       -1.54116035
 C           -2.75503332        1.01803817        0.36810446
 C           -2.30461600        2.28847721       -0.17196040
 C           -2.68830272       -1.25661482       -0.56548377
 C           -2.94545859        0.09891904       -0.74448306
 C           -1.51614311       -3.24011046       -1.43545142
 C           -0.30844827       -3.18778131       -2.24576407
 C           -2.25037427       -2.00356382       -1.65450106
 C            0.78889361       -1.10197591       -2.93183608
 C           -0.32372532       -1.93349019       -2.96616601
 C           -1.62709792       -1.32370396       -2.77937050
 C            1.59414394        1.17305575       -3.27607401
 C            0.89315642        2.44224681       -3.35897353
 C            0.64026898        0.12572780       -3.56132706
 C           -1.16667850        2.81590776       -2.29183767
 C           -2.17845528        2.14596925       -1.61464022
 C           -2.49387648        0.76347133       -1.95984169
 C           -1.71649592        0.06313013       -2.88738883
 C           -0.53094352        2.15795074       -3.41586766
 C           -0.68892891        0.72341063       -3.56488835
