58
Modified xyz file
 C            0.87632713       -0.01189882        4.21474697
 C            2.17966973       -0.27541039        3.63261722
 C            2.16047433       -1.63645207        3.12856039
 C            0.04329359       -1.18360983        3.98030119
 C            0.77658452       -2.06975376        3.10076065
 C           -1.26012748       -0.72543964        3.56710783
 C            0.12824842        1.15333223        3.77755360
 C           -1.24003949        0.73042790        3.55583561
 C            0.70514133        2.05132525        2.88728658
 C            2.66410880        0.57909867        2.56302970
 C            1.99876778        1.76047093        2.27314791
 C            2.89912052       -1.66069476        1.88280412
 C            3.09716344       -0.27584633        1.46808265
 C            2.49814478       -2.57345213        0.92247781
 C            0.23360561       -2.47066798        1.87637340
 C            1.10844229       -3.02258159        0.94399077
 C           -1.77462506       -1.15855534        2.28387382
 C           -1.00482309       -1.96637204        1.44183497
 C           -1.93057210        1.16622807        2.35278673
 C           -2.46178038       -0.01891636        1.71091922
 C           -0.12168030        2.68775178        1.87069628
 C           -1.37637339        2.15877938        1.54702696
 C            1.92640597        2.19932684        0.89288348
 C            0.78078171        3.08428779        0.80208678
 C            2.83564731        0.09001949        0.14046863
 C            2.16532610        1.28658184       -0.13560250
 C            2.82912192       -2.27943913       -0.45472259
 C            2.92492617       -0.88615119       -0.84885680
 C            0.67934046       -3.20112659       -0.42760595
 C            1.81493104       -2.89710029       -1.28094050
 C           -1.35079114       -2.01181950        0.08175017
 C           -0.57212859       -2.74758864       -0.82453006
 C           -2.63335718        0.01162197        0.34092276
 C           -2.34385676       -1.13675843       -0.38776721
 C           -1.84475932        2.28643624        0.23451236
 C           -2.61037706        1.24316076       -0.30924066
 C            0.24805880        3.33547944       -0.44688022
 C           -1.17922487        3.17354410       -0.61288586
 C            1.55684824        1.49046227       -1.38149130
 C            0.84583456        2.67159361       -1.59022604
 C            2.17101793       -0.73047519       -2.08235764
 C            1.59228185       -2.02601564       -2.41704371
 C            1.41682173        0.42424332       -2.27955678
 C           -0.76821066       -2.57328637       -2.19377449
 C            0.33316068       -2.04714054       -2.98995602
 C           -2.77184918       -1.19687409       -1.70941058
 C           -1.98070190       -1.93702081       -2.66384456
 C           -3.03682953        1.29110889       -1.63604645
 C           -3.19018940        0.03705282       -2.35913074
 C           -1.40518299        3.12233459       -2.04347763
 C           -0.13765404        2.73578571       -2.65382613
 C           -2.42656259        2.23498596       -2.55127163
 C            0.34916425        0.39436024       -3.18955592
 C           -0.16077741       -0.83573692       -3.60739064
 C           -1.59751004       -1.01134335       -3.71746505
 C           -2.45064296        0.15394376       -3.60890655
 C           -0.38315526        1.55201735       -3.44855250
 C           -1.82497880        1.46176650       -3.62212185
