58
Modified xyz file
 C            1.30207726       -0.06859032        3.85345672
 C            2.55149277       -0.22671107        3.13400651
 C            2.56395247       -1.56575301        2.57853369
 C            0.47146154       -1.23165538        3.56580119
 C            1.22106404       -2.10857321        2.69903989
 C           -0.81298229       -0.75129258        3.11443314
 C            0.49453634        1.11255883        3.60910755
 C           -0.87708179        0.65916162        3.45144920
 C            0.97981407        2.11717069        2.77611010
 C            2.86891487        0.69574782        2.05806958
 C            2.14896937        1.87608612        1.93602612
 C            3.14690368       -1.49145717        1.25022664
 C            3.14434646       -0.08817579        0.86304473
 C            2.72318736       -2.42475126        0.32064673
 C            0.62743914       -2.62492698        1.55175307
 C            1.50189000       -3.15837633        0.61203649
 C           -1.31540275       -1.17319848        1.88501272
 C           -0.62267892       -2.13395725        1.12175536
 C           -2.36458190       -0.44356472        1.31777285
 C           -1.78118856        1.45545927        2.76605259
 C           -2.67955407        0.81872247        1.82162063
 C            0.03976199        2.92043042        2.00924334
 C           -1.32264600        2.69125806        2.14635651
 C            1.85215668        2.38456480        0.60985321
 C            0.60515332        3.12847759        0.68212627
 C            2.57993670        0.29487625       -0.35858015
 C            2.10669105        1.60225935       -0.51426176
 C            2.60200442       -2.01386254       -1.06125820
 C            2.32686384       -0.67420580       -1.34236421
 C            0.98458653       -3.63551281       -0.64720140
 C            1.81377719       -3.05303361       -1.69275214
 C           -1.14852070       -2.54684377       -0.11671125
 C           -0.38976873       -3.34081217       -0.97680900
 C           -2.89441966       -0.82952594        0.09419661
 C           -2.27462501       -1.91327164       -0.63747167
 C           -3.30533819        0.18612243       -0.86783183
 C           -3.12914058        1.85258752        0.90800690
 C           -2.19379990        2.96140799        1.01768426
 C           -3.27221460        1.52473150       -0.49878054
 C           -0.21760321        3.16942593       -0.44368564
 C           -1.60732458        3.16866235       -0.29458347
 C           -2.44293109        2.45424915       -1.25144787
 C            1.51896604        1.98317133       -1.71317058
 C            0.33819054        2.83585248       -1.67716276
 C            1.62109890       -0.33433244       -2.50592984
 C            1.33202245        1.00081588       -2.76207394
 C            0.94121854       -2.69035123       -2.78448619
 C           -0.41389136       -3.05584340       -2.40095128
 C            0.89893932       -1.30636053       -3.20464406
 C           -2.32293017       -1.57739562       -2.05566107
 C           -2.80449247       -0.21121284       -2.17219374
 C           -1.30268647       -2.01497335       -2.88832769
 C           -0.47835678       -1.03348031       -3.57909485
 C           -1.90074931        2.06435331       -2.47004734
 C           -0.53208855        2.43879033       -2.76878960
 C            0.09984427        1.33043918       -3.46271154
 C           -2.10501932        0.70498031       -2.95327139
 C           -0.89524420        0.28963858       -3.65116762
