58
Modified xyz file
 C            1.56041321       -0.33831046        4.38633116
 C            0.71897319       -1.51311952        4.27811870
 C            1.27506391       -2.36988566        3.24210874
 C            2.65585340       -0.48941500        3.44334904
 C            2.48644990       -1.74826173        2.74439605
 C            2.72616693        0.73022766        2.66274858
 C            0.77480847        0.81008116        3.96183108
 C            1.56391912        1.54045055        3.00390235
 C           -0.58591564       -1.07383024        3.81949271
 C           -0.52729343        0.34695912        3.53983162
 C            0.20867036       -2.67322896        2.30185482
 C           -0.97103201       -1.94499571        2.73536550
 C            0.48456225       -2.71745989        0.93005738
 C            2.73242959       -1.78287527        1.37985875
 C            1.78128388       -2.44469475        0.49392175
 C            3.10713597        0.66834025        1.32154554
 C            3.20023117       -0.58009877        0.69856103
 C            2.84114478        1.79113433        0.54056871
 C            0.92268405        2.19702289        1.96502626
 C            1.76611817        2.66750721        0.97243185
 C           -1.03838353        0.79232574        2.31932434
 C           -0.38983080        1.81654066        1.61520470
 C           -1.77050238       -1.42782681        1.73749426
 C           -1.92075076       -0.04098309        1.62923730
 C           -0.58304102       -2.55650365        0.03371367
 C           -1.81239121       -2.14970546        0.56380385
 C           -0.32120296       -2.35018246       -1.33146695
 C            1.98508144       -1.89568256       -0.83291390
 C            2.84036383       -0.72203387       -0.70593225
 C            0.92569710       -1.85934639       -1.72891398
 C            2.73002676        1.66657213       -0.90361937
 C            2.56305053        0.40659482       -1.47249953
 C            1.19745253        3.29070862       -0.19294231
 C            1.90695493        2.77709482       -1.35436913
 C           -0.93526169        2.23591340        0.39000823
 C           -0.21258936        3.10458137       -0.43316198
 C           -2.57504580        0.44719952        0.49484959
 C           -2.06772923        1.59535174       -0.13451183
 C           -2.85360135       -1.84439402       -0.28845981
 C           -3.32998516       -0.47629725       -0.23926602
 C           -1.39336020       -2.28900623       -2.22491819
 C           -2.73038377       -2.21069347       -1.67731146
 C           -1.33407405       -1.37518350       -3.35710412
 C            1.00684616       -0.96005761       -2.78873839
 C            1.78216848        0.25804439       -2.62004618
 C           -0.17824454       -0.63481214       -3.56015634
 C            0.92155791        2.55022500       -2.39287320
 C           -0.36008640        3.00729460       -1.87232658
 C            0.97744094        1.36759351       -3.11732467
 C           -0.24911795        0.81889102       -3.67405250
 C           -2.49832930        1.95017154       -1.42008934
 C           -1.52836171        2.45878803       -2.37006488
 C           -1.45232011        1.48185680       -3.44387604
 C           -3.83213673       -0.14380441       -1.55598216
 C           -3.49490756       -1.24523409       -2.44653466
 C           -2.62683595       -0.72194435       -3.48312901
 C           -3.37911678        1.07749774       -2.17309201
 C           -2.69071760        0.72489870       -3.40926078
