58
Modified xyz file
 C            1.54546948       -0.02699079        4.04374009
 C            0.77264485       -1.25413661        4.01118667
 C            1.44753755       -2.18522569        3.12162081
 C            2.58218734       -0.12815284        3.03070722
 C            2.55491948       -1.47483183        2.49389311
 C            2.42750793        0.99166084        2.11555028
 C            0.66213175        1.05739778        3.65824277
 C            1.29620586        1.77958402        2.57403724
 C           -0.61470204       -0.90575680        3.74344087
 C           -0.65968527        0.51041160        3.41870908
 C           -1.39089953       -1.78940679        3.01014716
 C            0.67370723       -3.06529484        2.37226503
 C           -0.77401465       -3.00446726        2.49939355
 C            0.98568545       -3.29397096        0.96840482
 C            2.80576502       -1.64671236        1.13982709
 C            2.05856497       -2.63944013        0.38313243
 C            2.58148856        0.78305019        0.74195129
 C            2.97331121       -0.47454778        0.28837381
 C            1.95333961        1.66224914       -0.14890291
 C            0.48584067        2.34642530        1.60587186
 C            1.06119356        2.60679068        0.37125016
 C           -1.34408706        0.94640669        2.28550768
 C           -0.88924506        2.10134003        1.64954731
 C           -2.26549776       -1.27139083        1.97072380
 C           -2.17706712        0.06687179        1.58207720
 C           -1.35056100       -3.28272491        1.19704747
 C           -0.26608699       -3.39770927        0.23556268
 C           -2.39087926       -2.30116530        0.95204518
 C           -0.40218718       -2.77187280       -1.00404771
 C            1.93266832       -2.14900138       -0.97701731
 C            2.63632761       -0.87775141       -1.06161285
 C            0.73439185       -2.29944475       -1.67518365
 C            1.94642377        1.37706875       -1.52302596
 C            2.17154649        0.06648609       -1.96562729
 C            1.45552927        2.33307632       -2.41500799
 C            0.37542949        3.46145766       -0.47900404
 C            0.65241955        3.42314672       -1.89900244
 C           -1.68479683        2.65844443        0.65644687
 C           -1.06144152        3.55137697       -0.30869586
 C           -2.69183579        0.45000548        0.33674593
 C           -2.57877860        1.77663569       -0.07212872
 C           -2.61650520       -1.91013468       -0.35670011
 C           -1.67046906       -2.32449372       -1.38081394
 C           -2.94457125       -0.52238098       -0.62880976
 C           -1.81562174       -1.40434113       -2.49142916
 C           -2.58645443       -0.26132442       -2.01524825
 C            0.59113114       -1.56993986       -2.85626073
 C            1.45937872       -0.42222960       -3.05803451
 C           -0.73227689       -1.19139753       -3.32382092
 C            0.82468412        1.90600606       -3.65085618
 C            0.78199653        0.49170333       -3.95200563
 C           -0.61570555        0.08985360       -3.99763429
 C           -0.62563995        3.40565210       -2.59885691
 C           -1.67163559        3.30709979       -1.60185632
 C           -2.43439439        2.07489559       -1.49205883
 C           -2.22331906        1.02981723       -2.39382780
 C           -0.54870846        2.38178088       -3.61813894
 C           -1.40236015        1.20954247       -3.51184043
