58
Modified xyz file
 C            1.52821346        0.08817825        4.00901964
 C            0.72532759       -1.11639134        3.90298534
 C            1.33880746       -1.97477295        2.90789822
 C            2.51472332        0.06007802        2.94193826
 C            2.40745965       -1.21345529        2.27284140
 C            2.34877961        1.25812712        2.15245329
 C            0.65519443        1.21883851        3.75921364
 C            1.31006588        2.06164708        2.78078241
 C           -0.65585432       -0.72200227        3.70840742
 C           -0.66631626        0.70710992        3.43825314
 C           -1.46154623       -1.54613912        2.94434440
 C            0.51801582       -2.76621745        2.10419960
 C           -0.86744269       -2.70714161        2.29255981
 C            1.03635103       -3.20645082        0.88403195
 C            2.52168371       -1.27178501        0.88976279
 C            2.15201390       -2.47617603        0.30583395
 C            2.37073646        1.16912210        0.76094292
 C            2.47222287       -0.08575351        0.12767280
 C            1.91784523        2.27137616        0.03581344
 C            0.50286805        2.82243089        1.95333678
 C            0.98729669        3.12650093        0.62342888
 C           -1.31250092        1.20253347        2.30147083
 C           -0.89263864        2.42749653        1.79389055
 C           -2.35299696       -0.93818351        1.97578007
 C           -2.06431898        0.33896453        1.49489564
 C           -1.76448216       -3.07318246        1.21033525
 C           -2.71461089       -1.98188742        1.04533539
 C            0.15257373       -3.59422535       -0.20792666
 C           -1.21154586       -3.38749236       -0.09256260
 C            2.05923221       -2.57633646       -1.12944049
 C            0.80908832       -3.24706296       -1.45298683
 C            2.42982419       -0.15642561       -1.27780552
 C            2.12442205       -1.36087116       -1.90482991
 C            2.04352651        2.26885919       -1.34475732
 C            2.23424299        1.00294975       -2.02245468
 C            1.12539601        3.07068867       -2.14304824
 C           -0.17860191        3.53074508       -0.13672566
 C           -1.30659798        2.83304816        0.46508353
 C           -0.08245594        3.58559729       -1.51860560
 C           -2.33122115        0.66724108        0.14921088
 C           -2.06400866        1.96773712       -0.31660089
 C           -2.77158942       -1.65258117       -0.35566828
 C           -1.90267231       -2.56756860       -1.07905109
 C           -2.78343573       -0.32316001       -0.74603251
 C            0.10419379       -2.42416567       -2.42125162
 C            1.03195633       -1.39269725       -2.86337243
 C           -1.23584202       -2.09714367       -2.21606327
 C            1.30989441        0.95973360       -3.14750607
 C            0.73407820        2.28500193       -3.30129511
 C            0.53486702       -0.18622510       -3.34400455
 C           -1.21395714        3.12974399       -2.30528063
 C           -2.20778117        2.27882582       -1.66946399
 C           -0.69731748        2.41952528       -3.46537257
 C           -2.66105637       -0.11210676       -2.10988573
 C           -1.74452452       -0.96452199       -2.84995181
 C           -0.83963418       -0.08162817       -3.56840990
 C           -2.52701209        1.23246929       -2.61087335
 C           -1.48893893        1.21918134       -3.63049492
