58
Modified xyz file
 C            1.17374359       -0.04176717        4.62472612
 C            0.44669105       -1.19593521        4.12968212
 C            1.37894867       -2.03145984        3.40914463
 C            2.49641167       -0.06096421        4.01901244
 C            2.61738574       -1.28467040        3.25341908
 C            2.68536291        1.20219517        3.33853032
 C            0.48721729        1.14970174        4.15222679
 C            1.47045077        1.98771341        3.51122326
 C           -0.72184800       -0.71604022        3.41914869
 C           -0.66984818        0.73276741        3.37718943
 C           -1.13626822       -1.36433871        2.26562719
 C            0.98743810       -2.50462064        2.09566107
 C           -0.31486783       -2.32642660        1.65782637
 C            2.90333500       -1.21159763        1.82845489
 C            2.04681487       -2.18466813        1.16462157
 C            3.00876104        1.20970789        1.91898773
 C            3.14247781        0.01622902        1.20710440
 C            1.13745619        2.55132146        2.22187978
 C            2.25300694        2.30075911        1.32762510
 C           -0.96978737        1.36733360        2.16409119
 C           -0.14937029        2.41414790        1.70995688
 C           -2.02779270       -0.67778806        1.44925586
 C           -1.80552467        0.69098113        1.25435336
 C           -2.64929628       -1.41870552        0.45641509
 C           -0.57148157       -2.62074748        0.32468686
 C           -1.90016653       -2.54551097       -0.05947626
 C            1.71207446       -1.98398777       -0.17445036
 C            0.42422034       -2.31784700       -0.62126390
 C            3.05086744        0.07032165       -0.17880385
 C            2.44590068       -1.04697648       -0.88819690
 C            1.99957490        2.29201137       -0.04122161
 C            2.58351740        1.29387765       -0.81671809
 C           -0.33174128        2.89196514        0.42249704
 C            0.81439023        2.88038098       -0.47827088
 C           -2.12472172        1.28449707        0.02314241
 C           -1.47910644        2.45908703       -0.34113861
 C           -3.22550271       -0.74036216       -0.68202143
 C           -2.82137124        0.56374254       -0.95610572
 C           -2.23467783       -2.70156492       -1.45403187
 C           -3.27260221       -1.72964930       -1.74754975
 C            0.06112585       -2.04954297       -1.95491462
 C           -1.18043188       -2.49745710       -2.41900363
 C            1.92272442       -0.53684738       -2.13686961
 C            1.98733898        0.91640240       -2.08929076
 C            0.80334838       -1.12433382       -2.70888161
 C            0.31301887        2.61851482       -1.81879199
 C           -1.14243171        2.67912321       -1.73346290
 C            0.92312472        1.64551210       -2.61388081
 C           -2.86391752        1.04477814       -2.27160385
 C           -1.89580780        2.04104484       -2.70098542
 C           -3.07580301       -1.30100488       -3.11449663
 C           -1.80805302       -1.86479995       -3.56611981
 C           -3.04067063        0.12009169       -3.38340268
 C            0.18856265       -0.39973524       -3.72846177
 C            0.17995568        1.05224842       -3.63314442
 C           -1.19049191        1.48211342       -3.83460207
 C           -1.08888194       -0.82365940       -4.26116144
 C           -1.95278215        0.34443886       -4.31816645
