58
Modified xyz file
 C            1.34363622        0.01578010        4.38392532
 C            0.49921865       -1.11638003        4.04316834
 C            1.27434169       -1.99864731        3.20910097
 C            2.50105936       -0.02140866        3.50464841
 C            2.50665053       -1.30488811        2.84886793
 C            2.46702755        1.17054035        2.68293754
 C            0.60385183        1.22905498        4.08255935
 C            1.42733738        2.04155203        3.21711315
 C           -0.74752835       -0.60191777        3.51734587
 C           -0.71272254        0.85155962        3.60810477
 C           -1.33343231       -1.18255259        2.39240248
 C            0.68061488       -2.48011708        1.97715730
 C           -0.62220241       -2.11815873        1.61723915
 C            2.61321540       -1.34628849        1.40320508
 C            1.71248877       -2.38995291        0.96717549
 C            2.63674065        1.08333732        1.29646136
 C            2.66793382       -0.16764850        0.65255422
 C            2.37523696        2.22728666        0.55210245
 C            0.78883257        2.90775332        2.34451228
 C            1.45626733        3.21263503        1.09534143
 C           -1.30784742        1.59635702        2.58888016
 C           -0.62420501        2.68927379        2.03867577
 C           -2.36809129       -0.46789659        1.80636668
 C           -2.31565609        0.98609284        1.84553269
 C           -2.86741087       -0.85798387        0.50644354
 C           -1.00469335       -2.35783324        0.28609188
 C           -2.23666227       -1.88340947       -0.18506883
 C            1.30530173       -2.37254372       -0.34854910
 C           -0.00630065       -2.73115823       -0.62485232
 C            2.39534899       -0.26493127       -0.72405456
 C            1.93905295       -1.49796581       -1.22199413
 C            2.09467925        2.11431430       -0.86094200
 C            2.26517406        0.89662001       -1.50223401
 C            0.43532740        3.46589829        0.09552303
 C           -0.83395321        3.04338458        0.63772702
 C            0.87685625        2.86259805       -1.13855131
 C           -2.60370751        1.45826601        0.50297760
 C           -3.22734771        0.35961619       -0.20616674
 C           -1.66813436        2.25425954       -0.14629869
 C           -3.18325797        0.35055172       -1.58941491
 C           -2.58830169       -2.06874157       -1.52164562
 C           -3.14358326       -0.93998816       -2.25166246
 C           -0.32615051       -3.00223878       -1.94851992
 C           -1.67251714       -2.75223247       -2.41121570
 C            1.68690276       -1.66080388       -2.58133981
 C            0.59212277       -2.53843445       -2.97712655
 C            1.71011182        0.80300183       -2.77504350
 C            1.62561323       -0.48672886       -3.41896009
 C           -0.05983510        2.27877252       -1.98312340
 C           -1.34408500        1.99056704       -1.48865620
 C           -2.22253110        1.21862349       -2.25636206
 C            0.46124930        1.50828216       -3.01888534
 C           -2.38726446       -0.78668656       -3.47981150
 C           -1.58821849       -1.98713244       -3.64759074
 C           -0.18686968       -1.85710022       -3.99807781
 C            0.37847425       -0.53119042       -4.16695805
 C           -1.73634222        0.51496757       -3.43392043
 C           -0.40181638        0.64201383       -3.79711547
