58
Modified xyz file
 C            1.05313657        0.07191544        4.78200396
 C            0.39141566       -1.12629162        4.28930364
 C            1.40658450       -2.01045223        3.77192507
 C            2.43585529        0.02690407        4.33718244
 C            2.68123275       -1.30237084        3.81497347
 C            2.66693225        1.17799512        3.47967243
 C            0.42195277        1.21786946        4.15010480
 C            1.44219031        1.96140262        3.44987136
 C           -0.67382422       -0.71361411        3.39903662
 C           -0.70649686        0.73501727        3.38017499
 C           -0.87827536       -1.37560006        2.18743747
 C            1.24246411       -2.54012426        2.43055050
 C            0.10093546       -2.24055709        1.67997160
 C            3.30347426       -1.44254314        2.51129287
 C            2.52577526       -2.42136584        1.77668910
 C            3.10070142        0.98393482        2.10104860
 C            3.45694383       -0.27780767        1.64743523
 C            1.18313661        2.32063191        2.07017547
 C            2.27698309        1.83022817        1.25621464
 C           -1.01946232        1.33648991        2.16642617
 C           -0.10073218        2.19397165        1.55086835
 C           -1.73282464       -0.76267315        1.27203340
 C           -1.87267687        0.63054294        1.32536089
 C           -2.00318532       -1.41684336        0.06973100
 C            0.16110270       -2.42288696        0.29226715
 C           -1.00739526       -2.24346283       -0.46240821
 C            2.52352265       -2.01719563        0.39163241
 C            3.07223389       -0.67836565        0.30472606
 C            1.39112520       -2.25573305       -0.36057839
 C            1.97956272        1.45040628       -0.05287615
 C            2.43034767        0.22332643       -0.55200290
 C           -0.23471359        2.36122609        0.17693567
 C            0.84906863        2.01743388       -0.64201848
 C           -2.35185635        1.28777353        0.19752697
 C           -1.51282275        2.25837355       -0.36125170
 C           -2.96755491       -0.84982962       -0.76386648
 C           -3.21915269        0.56973812       -0.61871651
 C           -2.98366450       -1.15007712       -2.18444172
 C           -0.90501852       -2.39827969       -1.84971745
 C           -1.93744678       -1.87929413       -2.73065630
 C            1.36205174       -1.65267786       -1.60212960
 C            1.76433369       -0.31054108       -1.66488342
 C            0.37587754       -2.09875802       -2.45856876
 C            0.60303903        1.76640552       -1.99123870
 C            1.08194391        0.56133348       -2.52321504
 C           -1.65464351        2.61682053       -1.69703019
 C           -0.50908869        2.39286334       -2.55581441
 C           -3.60005370        1.10182635       -1.91157491
 C           -3.51038207        0.01929703       -2.87837984
 C           -2.84317440        2.21919029       -2.42411441
 C           -0.99736200        1.98644442       -3.85735584
 C           -2.82991564        0.53243550       -4.05624136
 C           -2.44834881        1.90862514       -3.78739310
 C           -1.28209441       -1.42696823       -3.95226790
 C            0.14014420       -1.36310034       -3.67714580
 C            0.52610836        0.02952087       -3.69129332
 C           -1.65354961       -0.15651673       -4.54753124
 C           -0.51446011        0.74398657       -4.40786021
