58
Modified xyz file
 C            1.69858774        0.07428798        4.19834110
 C            0.85485332       -1.09213890        4.38410161
 C            1.31941956       -2.11844954        3.47219287
 C            2.61684259       -0.20154285        3.10500036
 C            2.37902698       -1.55487678        2.64946343
 C            2.49824212        0.87563491        2.14047281
 C            0.84635141        1.16671235        3.77377341
 C            1.47215224        1.78569823        2.62061937
 C           -0.49660840       -0.73938278        3.97862855
 C           -0.50293203        0.65910682        3.60697543
 C            0.15334768       -2.66125015        2.80042268
 C           -0.93262086       -1.70950074        2.99459253
 C            0.33776338       -3.18948087        1.53212262
 C            2.34320675       -1.80056881        1.28041077
 C            1.57259510       -2.87268885        0.83342834
 C            2.51639530        0.56783688        0.78038420
 C            2.65312133       -0.76854811        0.38467486
 C            1.98236578        1.50093610       -0.11888346
 C            0.64453302        2.36052043        1.66912874
 C            1.15479559        2.51459747        0.38632165
 C           -1.18628900        1.04691307        2.46081750
 C           -0.73414501        2.18481159        1.80364844
 C           -1.64243996       -1.26710287        1.87963854
 C           -1.91213889        0.10269686        1.72322300
 C           -0.72924652       -3.05197940        0.55822740
 C           -1.73647043       -2.11711432        0.77686031
 C            1.31938018       -3.02588278       -0.58662678
 C           -0.12449389       -3.13698569       -0.76224914
 C            2.71433240       -1.06042072       -0.97472368
 C            2.05119673       -2.25684032       -1.47468172
 C            2.04356934        1.24475539       -1.49586719
 C            2.49019910        0.00298154       -1.93748903
 C            1.34709223        2.05249192       -2.39411387
 C            0.45256476        3.34811264       -0.47442826
 C            0.60724630        3.19289658       -1.90260519
 C           -1.56393927        2.74483669        0.84404294
 C           -0.95692294        3.55135379       -0.20086940
 C           -2.62065544        0.53797452        0.59467779
 C           -2.55688741        1.88569242        0.22151909
 C           -2.52238300       -1.73869867       -0.30149229
 C           -3.08827593       -0.40481639       -0.31851564
 C           -0.75302123       -2.49590590       -1.82994692
 C           -2.05613583       -2.03569327       -1.64886229
 C            1.45713207       -1.93685202       -2.75643873
 C            1.86737373       -0.59018348       -3.10944107
 C            0.01326536       -2.01118114       -2.89372532
 C            0.54813294        1.43230674       -3.44128465
 C            0.72681580        0.08139454       -3.70727617
 C           -0.41177948       -0.82492903       -3.62627698
 C           -0.72179340        3.15617349       -2.49774817
 C           -1.69112984        3.32338576       -1.43183515
 C           -2.65435304        2.26635832       -1.18387855
 C           -0.79641731        1.97521044       -3.34039341
 C           -3.27361544       -0.03132413       -1.71139758
 C           -2.59236200       -1.01824796       -2.53428117
 C           -1.69126825       -0.31775178       -3.42920940
 C           -2.85165221        1.28443183       -2.14560711
 C           -1.88192376        1.11022898       -3.22356200
