58
Modified xyz file
 C            1.59969901       -0.00000000        3.70269416
 C            0.77665630       -1.17115123        3.46560208
 C            1.47416830       -2.01272997        2.52038459
 C            2.66193457       -0.00000000        2.70973490
 C            2.57919888       -1.23737679        1.97201382
 C            2.57919888        1.23737679        1.97201382
 C            0.77665630        1.17115123        3.46560208
 C            1.47416830        2.01272997        2.52038459
 C           -0.55395287       -0.72718409        3.11392643
 C           -0.55395287        0.72718409        3.11392643
 C           -1.21664210       -1.38742978        2.08608625
 C            0.72918983       -2.77950748        1.63452099
 C           -0.65302940       -2.54819916        1.53198466
 C            1.41647380       -3.26411460        0.52696470
 C            2.75507937       -1.22609195        0.58907773
 C            2.40557168       -2.39687663       -0.08926711
 C            2.75507937        1.22609195        0.58907773
 C            2.78387451        0.00000000       -0.10334527
 C            2.40557168        2.39687663       -0.08926711
 C            0.72918983        2.77950748        1.63452099
 C            1.41647380        3.26411460        0.52696470
 C           -1.21664210        1.38742978        2.08608625
 C           -0.65302940        2.54819916        1.53198466
 C           -2.21449057       -0.69945696        1.39155376
 C           -2.21449057        0.69945696        1.39155376
 C           -2.98402177       -1.37411880        0.44719527
 C           -1.40987098       -3.30408850        0.63540082
 C           -2.61426103       -2.72630376        0.07075046
 C            0.69889103       -3.94948964       -0.52608215
 C           -0.74495256       -4.00839927       -0.44688710
 C            2.13557339       -2.37382223       -1.51796654
 C            1.04719575       -3.30089437       -1.77997293
 C            2.67861647       -0.00000000       -1.49567674
 C            2.13186520       -1.15722111       -2.17367749
 C            2.13557339        2.37382223       -1.51796654
 C            2.13186520        1.15722111       -2.17367749
 C            0.69889103        3.94948964       -0.52608215
 C            1.04719575        3.30089437       -1.77997293
 C           -1.40987098        3.30408850        0.63540082
 C           -0.74495256        4.00839927       -0.44688710
 C           -2.98402177        1.37411880        0.44719527
 C           -2.61426103        2.72630376        0.07075046
 C           -3.32938811       -0.68993064       -0.78526245
 C           -3.32938811        0.68993064       -0.78526245
 C           -2.46518988       -2.73583849       -1.37960647
 C           -1.26894118       -3.47534380       -1.69442563
 C           -0.18196363       -2.78401312       -2.35600446
 C           -2.56535191       -1.35901721       -1.81678095
 C            0.91350247       -0.72319784       -2.84599130
 C            0.91350247        0.72319784       -2.84599130
 C           -0.27176317       -1.41592230       -2.62626149
 C           -1.45160910       -0.70276694       -2.35397901
 C           -0.18196363        2.78401312       -2.35600446
 C           -1.26894118        3.47534380       -1.69442563
 C           -2.46518988        2.73583849       -1.37960647
 C           -2.56535191        1.35901721       -1.81678095
 C           -0.27176317        1.41592230       -2.62626149
 C           -1.45160910        0.70276694       -2.35397901
