58
Modified xyz file
 C            1.51230392        0.10103749        4.22437674
 C            0.71054946       -1.08453464        3.98203918
 C            1.53769291       -2.01913900        3.25709600
 C            2.65969196        0.03877882        3.33333716
 C            2.73097314       -1.30603950        2.81513657
 C            2.54466907        1.13815159        2.39509877
 C            0.72234162        1.25427718        3.83411580
 C            1.51405394        2.02940008        2.90151632
 C           -0.54034367       -0.66308550        3.38084685
 C           -0.58080160        0.78793451        3.39223653
 C           -1.03125300       -1.32162074        2.25817389
 C            0.97951884       -2.67007187        2.08819840
 C           -0.32818595       -2.39582188        1.68697893
 C            2.82817091       -1.49535119        1.38090737
 C            2.01746569       -2.65703277        1.07961176
 C            2.61354242        0.90454137        1.01872727
 C            2.76817934       -0.40087345        0.51540893
 C            2.21269625        1.93028088        0.15991441
 C            0.83175466        2.81441114        1.98786580
 C            1.35710590        2.92304835        0.64030265
 C           -1.18761765        1.44270150        2.32137136
 C           -0.60456529        2.62136819        1.84596068
 C           -2.01195596       -0.67896210        1.50690140
 C           -2.04553878        0.72147138        1.48418987
 C           -2.68487287       -1.41692517        0.53946498
 C           -0.73143643       -2.86925699        0.43524103
 C           -2.02610049       -2.59231557        0.00512529
 C            1.63845554       -2.86518801       -0.23385002
 C            0.24832678       -3.18930467       -0.50979933
 C            2.53767698       -0.65154721       -0.84231133
 C            2.04663288       -1.89606041       -1.23883461
 C            2.34490587        1.75756414       -1.21214860
 C            2.45998868        0.41086694       -1.73475946
 C            1.48582228        2.51380532       -2.10954554
 C            0.26157685        3.39517754       -0.19279061
 C           -0.97366496        3.13490816        0.53460196
 C            0.31944940        3.18329043       -1.56401087
 C           -2.67774808        1.38804916        0.43499695
 C           -2.05857937        2.57594267       -0.12494686
 C           -3.36136590       -0.74288678       -0.55478274
 C           -3.26322751        0.63692829       -0.66074780
 C           -2.34844310       -2.68090406       -1.41012043
 C           -3.22421357       -1.56887010       -1.74144732
 C            0.02854923       -2.88940921       -1.91586153
 C            1.08300093       -1.97035078       -2.32842040
 C           -1.26603696       -2.70476679       -2.37623229
 C            1.58921541        0.30414217       -2.89823510
 C            1.04118239        1.62187816       -3.16579777
 C            0.77164921       -0.81448421       -3.04232730
 C           -0.85181799        2.68618360       -2.27160579
 C           -2.02534705        2.42052790       -1.57111430
 C           -2.82251215        1.25153745       -1.90901550
 C           -0.39602253        1.76494454       -3.30412037
 C           -2.73666864       -0.96707208       -2.96786714
 C           -1.52053686       -1.66606467       -3.35642332
 C           -0.49535128       -0.66783809       -3.61071484
 C           -2.45582936        0.45826696       -2.99208079
 C           -1.14710545        0.63436154       -3.59983086
