58
Modified xyz file
 C            1.50933266        0.07993160        4.20940811
 C            0.69669994       -1.12180374        4.26907042
 C            1.39893671       -2.16442302        3.54535246
 C            2.58593515       -0.16140167        3.26415223
 C            2.53753992       -1.55314336        2.87793317
 C            2.48954104        0.84093365        2.22226675
 C            0.68494704        1.14670228        3.66915784
 C            1.38539686        1.72529880        2.53664261
 C           -0.65231658       -0.77367139        3.85302551
 C           -0.64649908        0.62150487        3.43940048
 C           -1.38652926       -1.68814739        3.10932317
 C            0.66368885       -2.93252727        2.55680648
 C           -0.72371592       -2.86243736        2.54938795
 C            2.44624388       -1.87265682        1.46606791
 C            1.38283466       -2.84067118        1.29093337
 C            2.65035746        0.47789594        0.89142763
 C            2.57967974       -0.87235132        0.51003937
 C            2.31905087        1.43472987       -0.06111317
 C            0.62841278        2.20458221        1.46993749
 C            1.23288845        2.28129669        0.20977035
 C           -1.29060724        0.99719257        2.26333235
 C           -0.75854949        2.05986180        1.53072826
 C           -2.30418903       -1.19021558        2.10079007
 C           -2.16449380        0.10945553        1.62563931
 C           -1.41843266       -3.20887328        1.32607143
 C           -2.50167423       -2.25511329        1.14268928
 C            0.67303176       -2.83808986        0.08832477
 C           -0.66506707       -3.24024701        0.08651356
 C            2.19652576       -1.17375635       -0.79773963
 C            1.17074028       -2.10983794       -1.00174067
 C            2.64386682        1.13857048       -1.37480347
 C            2.50458850       -0.24217898       -1.78782702
 C            2.14466663        1.98406778       -2.43464455
 C            0.51185850        2.86363940       -0.84154961
 C            1.04408773        2.87175948       -2.13309264
 C           -1.51976953        2.58287727        0.49647566
 C           -0.83435547        3.17147266       -0.63859505
 C           -2.62748903        0.42224115        0.34482717
 C           -2.58863917        1.75878305       -0.03762493
 C           -2.54524981       -1.91261060       -0.26704349
 C           -1.55843650       -2.73948748       -0.94150069
 C           -2.66099294       -0.57569027       -0.64307754
 C            0.43133094       -2.09106133       -2.18637365
 C           -1.00861198       -2.26921855       -2.12061244
 C            1.79281466       -0.25059661       -3.05265775
 C            1.73019382        1.12076770       -3.52954641
 C            0.69489623       -1.08353831       -3.20142078
 C            0.16084420        2.84187452       -3.28889363
 C            0.47516096        1.63828123       -4.04232124
 C           -1.77093953        3.13006401       -1.74883588
 C           -2.75330961        2.10513882       -1.43608185
 C           -1.27257815        2.86947343       -3.08305880
 C           -2.39477726       -0.24485313       -1.97608020
 C           -1.60095969       -1.09845967       -2.74209540
 C           -0.59215093       -0.53919614       -3.62494702
 C           -0.70326212        0.78924286       -4.02249868
 C           -2.61548573        1.05465596       -2.42047202
 C           -1.80701098        1.58396329       -3.50924695
