58
Modified xyz file
 C            1.23959338       -0.04756950        3.93813984
 C            2.48209310       -0.22591300        3.21130568
 C            2.47215148       -1.56848950        2.66261159
 C            0.40179647       -1.21186889        3.67782430
 C            1.11663191       -2.07861823        2.77233403
 C           -0.90207329       -0.73483266        3.28583158
 C            0.43555761        1.13437096        3.68244694
 C           -0.94280045        0.69028862        3.57344596
 C            0.90796221        2.11397612        2.81429577
 C            2.80495436        0.68545850        2.12801690
 C            2.07848005        1.85795682        1.97953558
 C            3.06752086       -1.51357410        1.34031948
 C            3.11343277       -0.11183115        0.95011549
 C            2.61985088       -2.43220926        0.40541342
 C            0.49701502       -2.53565420        1.61202011
 C            1.34023342       -3.08211993        0.65063300
 C           -1.48833028       -1.20702906        2.11309660
 C           -0.74311460       -1.99221047        1.21602087
 C           -2.63643993       -0.55968881        1.66995219
 C           -1.86515762        1.47512468        2.89511745
 C           -2.89236569        0.79846937        2.12499855
 C           -0.03830620        2.88684362        2.02341996
 C           -1.40040619        2.60890270        2.10536300
 C            1.77775645        2.33359835        0.64324866
 C            0.57326182        3.13989938        0.72776284
 C            2.61521759        0.26350839       -0.30145213
 C            1.96217419        1.49545988       -0.45584636
 C            2.61034153       -2.04695347       -0.99029529
 C            2.55668805       -0.69324841       -1.32165013
 C            0.80034300       -3.47422062       -0.62905190
 C            1.70440083       -2.96775829       -1.65043899
 C           -1.23406235       -2.21833702       -0.08706492
 C           -0.52952690       -3.03256316       -0.97347752
 C           -3.00429414       -0.62626875        0.27269444
 C           -2.31007330       -1.47144126       -0.57974077
 C           -3.19117243        1.61321202        0.96073069
 C           -2.23111687        2.69657735        0.91244803
 C           -3.30030193        0.72531509       -0.18037639
 C           -0.22359258        3.26509601       -0.40052567
 C           -1.65755116        3.02341567       -0.31007201
 C            1.31594234        1.80270416       -1.65548740
 C            0.23811611        2.68983669       -1.65267713
 C            2.08147836       -0.32946675       -2.57976477
 C            1.51480952        0.99186060       -2.76583986
 C            0.89775287       -2.47164948       -2.74652644
 C           -0.49955139       -2.68667454       -2.38365485
 C            1.27153407       -1.27330636       -3.34214761
 C           -2.41035708       -1.22163974       -1.94911280
 C           -1.47803121       -1.83559566       -2.87924566
 C           -2.81440696        1.12855334       -1.42096872
 C           -2.06242927        2.30606579       -1.51560415
 C           -0.94240123        2.38601431       -2.44462442
 C           -2.65799575        0.14217921       -2.39043861
 C            0.46325300        0.88959647       -3.76559525
 C            0.27682889       -0.51723224       -4.07841556
 C           -1.12280220       -0.83699601       -3.87619308
 C           -0.83998618        1.46407532       -3.47597047
 C           -1.81852496        0.39660114       -3.54688410
