58
Modified xyz file
 C            1.56121763        0.01583497        3.86246464
 C            0.73592305       -1.16888800        3.71994918
 C            1.33698776       -2.01823331        2.70827830
 C            2.62745936       -0.06533883        2.87860381
 C            2.51860745       -1.33325307        2.19820511
 C            2.58223501        1.13261903        2.07801591
 C            0.73826748        1.16617375        3.52844196
 C            1.40941303        1.89664325        2.48266141
 C           -0.63030291       -0.73345952        3.52765420
 C           -0.60320182        0.69933068        3.27074334
 C           -1.46040627       -1.52208999        2.74862121
 C            0.51361128       -2.69934742        1.80898611
 C           -0.87605506       -2.55978775        1.90230654
 C            1.07144371       -3.12700604        0.60380564
 C            2.77794379       -1.39563434        0.83385774
 C            2.32931564       -2.53918450        0.17925025
 C            2.86923408        1.05085194        0.71839106
 C            2.99737522       -0.20861627        0.10435389
 C            2.51222579        2.15620574       -0.05408352
 C            0.65721856        2.50167419        1.48335946
 C            1.38098944        2.95443460        0.38824846
 C           -1.29609910        1.19617745        2.16803731
 C           -0.69539056        2.14036073        1.31276034
 C           -2.50148751       -0.87345666        1.97313027
 C           -2.42611371        0.50012958        1.74158915
 C           -1.68690296       -2.64071221        0.69384332
 C           -2.82996012       -1.76198605        0.87112367
 C            0.23149916       -3.23388687       -0.58024787
 C           -1.05144466       -2.70370086       -0.54076324
 C            2.39692249       -2.63439590       -1.26267908
 C            1.06661417       -2.98147207       -1.73956617
 C            3.16498374       -0.26559077       -1.28304525
 C            2.84956382       -1.48341609       -2.00704112
 C            2.45141831        2.05800368       -1.50263590
 C            2.68529598        0.83132941       -2.10231271
 C            0.68441109        3.43635188       -0.77760658
 C            1.31619384        2.84843716       -1.94948414
 C           -1.41438109        2.61558823        0.20028624
 C           -0.73657809        3.19359854       -0.87511908
 C           -3.22705837        1.04963823        0.75165624
 C           -2.71265819        2.15988973       -0.02702454
 C           -3.44421493       -1.22180824       -0.24783645
 C           -3.91593182        0.14673015       -0.15677429
 C           -1.49022486       -1.87668364       -1.58089299
 C           -2.78340258       -1.36249049       -1.53692496
 C            0.65185646       -1.95801399       -2.67651051
 C            1.81973579       -1.15751559       -2.98265209
 C            1.67845404        0.28450691       -3.00238111
 C           -0.56146177       -1.31364910       -2.46490020
 C            0.27289214        2.19799793       -2.72177949
 C           -0.99188125        2.70387637       -2.22199618
 C            0.40147179        0.84228060       -3.01212769
 C           -0.71812005        0.00986513       -2.89467530
 C           -3.14815294        1.97117479       -1.40303900
 C           -3.87151020        0.71744704       -1.48802730
 C           -3.09031398       -0.18033250       -2.32175636
 C           -2.13854173        1.96136508       -2.44268871
 C           -1.98898460        0.58143329       -2.88205293
