58
Modified xyz file
 C            1.23039510       -0.18376640        4.02749242
 C            2.39639414       -0.39746533        3.19022002
 C            2.21739926       -1.66043265        2.49277831
 C            0.36791010       -1.34644852        3.88937613
 C            0.89464411       -2.16504371        2.81110803
 C           -0.99661037       -0.87610606        3.79441775
 C            0.41516839        1.00192823        3.81880094
 C           -0.97122571        0.57652740        3.73691861
 C            0.85623374        1.99864544        2.95634674
 C            2.74992787        0.60714175        2.20330402
 C            2.10244047        1.83421715        2.21452821
 C            2.55775232       -1.45230739        1.09693339
 C            2.95826878       -0.06574913        0.93124482
 C            1.75694384       -2.02588762        0.11867960
 C            0.06152934       -2.54524937        1.75890031
 C            0.63964916       -2.77371600        0.50535221
 C           -1.80418158       -1.33974468        2.68673234
 C           -1.32520902       -2.34324357        1.85303182
 C           -1.77475640        0.99397503        2.59503001
 C           -2.42914900       -0.18465590        2.06500621
 C           -0.09750109        2.61732086        2.05035147
 C           -1.26428717        1.93402338        1.71013506
 C            1.95505370        2.55665776        0.96321775
 C            0.67997523        3.25677886        1.00841900
 C            2.62834067        0.58706915       -0.25658203
 C            2.35159705        1.96189964       -0.23371202
 C            1.81718915       -1.50236018       -1.17155584
 C            2.24744470       -0.18511712       -1.36056300
 C            1.16270823       -2.16865178       -2.20391952
 C           -0.10754435       -3.42928772       -0.46706952
 C            0.20310061       -3.20236657       -1.86724967
 C           -2.11310162       -2.63044466        0.74476172
 C           -1.54736898       -3.41485777       -0.33307557
 C           -2.71999072       -0.25588565        0.70532552
 C           -2.85851154       -1.53062956        0.14936840
 C           -1.69286514        1.92737779        0.38062932
 C           -2.40183886        0.82649381       -0.12541599
 C            0.05684957        3.56005758       -0.19118439
 C           -1.21215798        2.91201111       -0.48717601
 C            2.00895412        2.61525235       -1.41596737
 C            0.85990222        3.50526450       -1.39894424
 C            2.05527623        0.42521799       -2.59673146
 C            1.96269177        1.86822070       -2.65693515
 C            0.60278685       -1.40298325       -3.30314822
 C            1.05058855       -0.10538129       -3.50094905
 C           -1.04000393       -2.89265277       -2.55972261
 C           -2.10976153       -2.92834578       -1.58199160
 C           -2.84623121       -1.70910482       -1.29308550
 C           -0.82537436       -1.67702064       -3.32494428
 C           -2.62542365        0.71690091       -1.49834454
 C           -2.68867314       -0.59782070       -2.10996994
 C           -1.72591678       -0.62148416       -3.20640135
 C           -1.28329823        2.71535412       -1.92609852
 C           -0.01261310        3.12979634       -2.49600028
 C            0.71859782        2.20273351       -3.33780004
 C            0.08293972        0.95649458       -3.72625424
 C           -1.92005170        1.58682572       -2.42087354
 C           -1.25500565        0.74002507       -3.40674461
