58
Modified xyz file
 C            1.33021444        0.03480598        4.08736993
 C            2.50278302       -0.16586492        3.26368552
 C            2.48945568       -1.54309703        2.79300380
 C            0.50234259       -1.15725018        3.98148197
 C            1.23494451       -2.14768651        3.20963779
 C           -0.81436384       -0.74281840        3.51885814
 C            0.48547839        1.17885293        3.81629881
 C           -0.87632596        0.69158135        3.66171462
 C            0.77021532        2.01898603        2.66276713
 C            2.70920456        0.68469124        2.10252605
 C            1.76412766        1.65782026        1.75879190
 C            2.83032766       -1.52456043        1.37668684
 C            3.25418031       -0.17081027        1.06455823
 C            2.02719274       -2.22101948        0.47133920
 C            0.53313989       -2.91473423        2.29136650
 C            1.10778174       -3.13815711        0.97620627
 C           -1.34825795       -1.34814305        2.38079238
 C           -0.87095120       -2.61629918        2.06420008
 C           -1.99982884       -0.56979495        1.39820871
 C           -1.48412161        1.45241828        2.60049940
 C           -0.51418221        2.43640954        2.14662018
 C           -2.23813691        0.79723574        1.63454419
 C           -0.61796912        2.86129389        0.82941844
 C            1.64016584        2.04795308        0.42228348
 C            0.49835579        2.73974741       -0.01364634
 C            3.17954574        0.25890109       -0.24523588
 C            2.53594549        1.52980445       -0.51440046
 C            1.91605775       -1.75803302       -0.85023953
 C            2.68805151       -0.66495050       -1.24892722
 C            0.92869487       -2.26329650       -1.71307615
 C            0.02143482       -3.59441283        0.13938807
 C           -1.22315746       -3.22223923        0.80366034
 C           -0.06106303       -3.11054377       -1.21898105
 C           -2.32555833       -1.13128795        0.14516289
 C           -1.99881176       -2.45450870       -0.14159424
 C           -1.45509784       -2.76922565       -1.44730894
 C           -2.72843211       -0.31151960       -0.91337862
 C           -2.68720988        1.60180219        0.59389404
 C           -1.89259945        2.77597389        0.27632554
 C           -3.07846041        1.00521379       -0.66240007
 C           -2.09822510        3.09319027       -1.11865944
 C           -2.87291478        2.00718216       -1.69866849
 C            0.37960888        3.07075095       -1.36871251
 C           -0.93309316        3.30855293       -1.94533118
 C            2.18777453        1.52450605       -1.92270269
 C            2.27022047        0.14319622       -2.38050156
 C            1.15325586        2.33752102       -2.35651427
 C            0.68146111       -1.63228460       -2.93402639
 C            1.30891127       -0.35793885       -3.24183391
 C           -1.75951144       -1.93167659       -2.50579052
 C           -2.51417832       -0.71877758       -2.23407806
 C           -0.68809418       -1.57518539       -3.41920079
 C           -2.23198896        1.61480057       -2.94010235
 C           -1.06332199        2.46513814       -3.12262922
 C            0.23371570        1.85577999       -3.37656135
 C            0.29218606        0.52866498       -3.78974167
 C           -2.13892553        0.26287305       -3.24309775
 C           -0.94199284       -0.22953101       -3.90394983
