58
Modified xyz file
 C            1.35547396       -0.07420419        3.84423927
 C            2.59289225       -0.24367829        3.10711589
 C            2.59813016       -1.58853047        2.56234710
 C            0.52545221       -1.24627868        3.59868461
 C            1.27345070       -2.15668736        2.75605074
 C           -0.76192120       -0.77985739        3.13342725
 C            0.54016891        1.10031275        3.58822982
 C           -0.82946899        0.64109993        3.42293107
 C            1.02669028        2.10673897        2.75803487
 C            2.89872341        0.67241482        2.02241272
 C            2.19343018        1.86382800        1.91521832
 C            3.12121425       -1.52027406        1.20782095
 C            3.12981901       -0.11660112        0.82215312
 C            2.65758186       -2.45290801        0.29462956
 C            0.65252661       -2.74601266        1.65738303
 C            1.49571220       -3.24099545        0.66422003
 C           -1.24458335       -1.24763802        1.91459471
 C           -0.66147081       -2.37178552        1.32237868
 C           -2.15521504       -0.46784991        1.19275601
 C           -1.72476856        1.41654765        2.70203443
 C           -2.55625042        0.76177479        1.70922939
 C            0.08746282        2.91524124        1.99537396
 C           -1.27370076        2.66846020        2.11204379
 C            1.89992777        2.38982953        0.59434645
 C            0.66680634        3.15470861        0.67952638
 C            2.54127279        0.28001139       -0.38190753
 C            2.13140358        1.60855854       -0.53555226
 C            2.42191987       -2.02932002       -1.07064804
 C            2.16603029       -0.68633568       -1.32597961
 C            0.93602462       -3.76474631       -0.56267662
 C            1.55184974       -3.02608601       -1.65848079
 C           -1.27929077       -2.92435050        0.20121659
 C           -0.49744040       -3.70748610       -0.73794093
 C           -2.48940421       -0.81446105       -0.12152970
 C           -2.19849319       -2.10182896       -0.57098445
 C           -2.86172689        0.17672358       -1.04357335
 C           -3.00794589        1.79055174        0.79985618
 C           -2.13447259        2.94284444        0.97769059
 C           -3.05159370        1.48840539       -0.61514633
 C           -0.14511269        3.24082466       -0.45130849
 C           -1.53570207        3.23678874       -0.31346393
 C           -2.35963325        2.56543746       -1.30733031
 C            1.55112726        2.01146901       -1.73251282
 C            0.41990163        2.92814075       -1.68664569
 C            1.36007174       -0.32950563       -2.41270264
 C            1.27110455        1.01870148       -2.75139977
 C            0.49278307       -2.58309495       -2.53953168
 C           -0.74652154       -3.17522593       -2.06288775
 C           -1.92070737       -2.32467790       -1.98346661
 C            0.45845841       -1.25801627       -2.96506006
 C           -2.65542456       -0.03680588       -2.40408317
 C           -1.98408683       -1.24202899       -2.84568857
 C           -0.75354208       -0.81049103       -3.48796650
 C           -1.84017786        2.32478655       -2.57198466
 C           -0.44135733        2.62560878       -2.81647996
 C            0.14544194        1.50277791       -3.53079265
 C           -2.13523210        1.05469299       -3.21383431
 C           -0.91760796        0.58048245       -3.85438633
