58
Modified xyz file
 C            1.42693666       -0.08020409        4.32172247
 C            0.67490795       -1.30345356        4.11895307
 C            1.59971107       -2.27273190        3.57290527
 C            2.62768121       -0.17092487        3.50500348
 C            2.74187052       -1.53524699        3.04513342
 C            2.55838919        0.88274271        2.51453632
 C            0.62964759        1.01594385        3.80328129
 C            1.45621753        1.75945767        2.87670099
 C           -0.52555194       -0.97081025        3.36198349
 C           -0.61278974        0.47712018        3.29185496
 C           -0.87517419       -1.72305880        2.23819139
 C            1.12731900       -3.13680680        2.51559547
 C           -0.19403617       -2.90569101        1.95512849
 C            2.79411046       -1.78530209        1.61447150
 C            2.06591607       -3.01415196        1.41243558
 C            2.74644594        0.59118185        1.16213260
 C            2.60033240       -0.73166596        0.71241744
 C            2.51026621        1.63533519        0.27906106
 C            0.82363133        2.43526376        1.84111149
 C            1.58980824        2.67660658        0.70629188
 C           -1.12549998        1.05403894        2.13967631
 C           -0.55192503        2.23875278        1.67338993
 C           -1.62114873       -1.12342109        1.21890343
 C           -1.84359408        0.26047090        1.24602181
 C           -1.90744136       -1.85263755        0.05839620
 C           -0.09424758       -3.32475089        0.57497158
 C            1.29945656       -3.14421187        0.20026313
 C           -1.03940182       -2.88025712       -0.33807408
 C            2.04928139       -0.99734660       -0.56194768
 C            1.55821554       -2.28269074       -0.85658508
 C            2.21247797        1.34687508       -1.10595554
 C            1.83265644        0.05899017       -1.46375294
 C            0.94990747        3.22073907       -0.47498938
 C            1.46824348        2.48334612       -1.62197481
 C           -1.20027165        2.90822059        0.64212792
 C           -0.40269820        3.52835575       -0.40398647
 C           -2.51453869        0.88580697        0.19293118
 C           -2.32194215        2.25234322       -0.00810480
 C           -2.79308042       -1.30781470       -0.87255494
 C           -3.08598321        0.11427731       -0.81709673
 C           -2.67766745       -1.67777519       -2.27500154
 C           -0.62796822       -2.91591378       -1.66543098
 C            0.71735155       -2.44811891       -1.94894980
 C           -1.50613072       -2.41135494       -2.69489547
 C            1.06160292       -0.12921993       -2.61855007
 C            0.59871208       -1.39791758       -2.93201045
 C           -0.71199890       -1.54120651       -3.54784342
 C            0.67482834        2.30815643       -2.74642009
 C            0.50660464        0.96891765       -3.28315571
 C           -1.19409852        3.53166345       -1.61991182
 C           -2.42333310        2.80184527       -1.34809853
 C           -0.61006204        2.98549198       -2.82903091
 C           -3.13368676        0.62049288       -2.18632863
 C           -2.73879346       -0.46391897       -3.06861407
 C           -1.49286476       -0.34855712       -3.81427512
 C           -0.84103710        0.87695414       -3.83376120
 C           -2.66604863        1.90029862       -2.45700800
 C           -1.56951516        2.05747264       -3.40128489
