58
Modified xyz file
 C            1.00065664       -0.06463613        4.40420932
 C            2.35201654       -0.24402761        3.90657358
 C            2.33958324       -1.39068873        3.00836527
 C            0.22845727       -1.22009048        3.97898332
 C            0.97657199       -1.88336594        2.92749319
 C           -1.10823585       -0.76139094        3.68612256
 C            0.24416410        1.12487618        4.03517249
 C           -1.10606641        0.69596629        3.73682398
 C            0.82730762        2.11246240        3.24771510
 C            3.00364421        0.85649245        3.22084627
 C            2.25398105        2.07282958        2.96405182
 C            3.00450371       -1.00218968        1.78141254
 C            3.48661522        0.35937657        1.94404436
 C            2.42148866       -1.33436696        0.56664063
 C            0.39978084       -2.05715836        1.66639584
 C            1.23170278       -2.07112508        0.54437919
 C           -1.70461055       -1.13824102        2.42197701
 C           -0.97863373       -1.88199700        1.48967878
 C           -1.75457141        1.17164976        2.52494512
 C           -2.42167844        0.02354574        1.94426310
 C            0.14435650        2.58850676        2.04928431
 C           -1.09338236        2.05637488        1.67213782
 C            2.43785028        2.41946170        1.56441179
 C            3.14594963        1.33512717        0.91649767
 C            1.15094016        2.80601940        1.02513453
 C            2.69436278       -0.50888108       -0.51521133
 C            2.66018405        0.86376338       -0.30088033
 C            2.35759091       -0.98023033       -1.76815742
 C            0.69187195       -2.39749702       -0.70189235
 C            1.48539225       -2.13293941       -1.81981210
 C           -1.50124425       -1.95192396        0.19621010
 C           -0.70143704       -2.44437533       -0.83771169
 C           -2.72447400        0.05929927        0.59797962
 C           -2.58617554       -1.12395182       -0.11410349
 C           -1.45518856        2.06614414        0.31705844
 C           -2.51858399        1.25010880       -0.08822135
 C            0.83405294        2.44453400       -0.27416242
 C            1.70168558        1.61301490       -0.99431814
 C           -0.50478708        2.46873270       -0.63031580
 C            1.83063516       -0.03676737       -2.73387228
 C            1.30958229        1.17023055       -2.26608625
 C            0.91276395       -2.15517592       -3.14923540
 C            1.09753981       -0.82325773       -3.71342251
 C           -1.28079350       -2.65604460       -2.09182778
 C           -0.47853649       -2.51123508       -3.29208897
 C           -3.15019227       -1.17182767       -1.38117453
 C           -2.57035114       -2.05250277       -2.37448029
 C           -2.96820362        1.31765067       -1.40484023
 C           -3.45626906        0.09364238       -2.02743287
 C           -0.80312498        2.38365601       -1.98050930
 C            0.14232493        1.68910858       -2.83673717
 C           -2.14161491        2.00063394       -2.37811800
 C           -0.19274498       -0.35753870       -4.17645465
 C           -1.10502383       -1.49229600       -4.11759231
 C           -2.45602645       -1.30751822       -3.62094193
 C           -2.94364196        0.03891288       -3.38567718
 C           -0.62463119        0.91153367       -3.80442509
 C           -2.03733345        1.15958618       -3.55910462
