58
Modified xyz file
 C            1.38260275       -0.13376943        3.78900180
 C            2.64186622       -0.42525081        3.13082156
 C            2.58899292       -1.79425638        2.64859321
 C            0.53249507       -1.30517817        3.66987322
 C            1.30116940       -2.35733121        3.02849382
 C           -0.72415169       -0.88892588        3.06886326
 C            0.61868024        1.01727867        3.34363519
 C           -0.68849827        0.55114878        2.90483905
 C            1.25508815        1.99895500        2.59704728
 C            3.06087437        0.42161352        2.02785329
 C            2.50133681        1.68522719        1.89915570
 C            2.97817110       -1.79227046        1.24509685
 C            3.16174289       -0.40906275        0.83928326
 C            2.35498424       -2.67526468        0.37641784
 C            0.65319924       -3.19773274        2.13388015
 C            1.33742528       -3.56588784        0.90527050
 C           -1.27797514       -1.66099995        2.05828361
 C           -0.73074458       -2.91761728        1.77930414
 C           -2.12370726       -1.05803931        1.12660023
 C           -1.26970102        1.12338052        1.77372367
 C           -2.05012205        0.33181068        0.91719368
 C            0.45466410        2.80467016        1.69391095
 C           -0.82877022        2.38111745        1.35303263
 C            2.39914847        2.26420778        0.57020683
 C            1.34594160        3.26060391        0.64235862
 C            2.61010649        0.05217665       -0.35704113
 C            2.47121450        1.43013645       -0.54637919
 C            1.88745124       -2.19070089       -0.91258603
 C            1.92987413       -0.83297750       -1.20304563
 C            0.33060363       -3.75327134       -0.12354388
 C           -0.97022688       -3.53519168        0.48370088
 C            0.69811482       -2.94166086       -1.27366792
 C           -2.72229082       -1.87909739        0.17680847
 C           -1.97095496       -3.01487509       -0.31824518
 C           -3.37080170       -1.29091468       -0.97441149
 C           -2.71605496        0.93241769       -0.16510413
 C           -3.35506084        0.14516197       -1.12154580
 C           -1.45758974        2.99958003        0.28127565
 C           -2.40628509        2.24661423       -0.51504342
 C            0.79053129        3.72961916       -0.53827489
 C           -0.65785405        3.80935970       -0.62592487
 C            1.97899728        1.89915679       -1.76087437
 C            1.27365203        3.17111264       -1.78984097
 C            1.08765361       -0.33464038       -2.19518753
 C            1.26660575        0.97680939       -2.62634545
 C           -0.31909010       -2.30053786       -1.97782346
 C           -1.63496691       -2.67049912       -1.68648234
 C           -2.73592616       -1.85695219       -2.15987867
 C           -0.06418043       -1.04777650       -2.55564054
 C           -3.09581980        0.41291585       -2.52446287
 C           -2.44905467       -0.76793979       -3.06558708
 C           -1.06407471       -0.41401235       -3.29741637
 C           -2.17431844        2.57286571       -1.91820999
 C           -1.04417885        3.47790343       -1.98555035
 C            0.14316498        3.03960204       -2.69268751
 C            0.16499704        1.69579936       -3.24638507
 C           -2.26346713        1.55223735       -2.85492884
 C           -1.03548317        1.02915239       -3.45241036
