58
Modified xyz file
 C            1.31942425       -0.18416776        3.42132610
 C            2.34825056       -0.39835521        2.42015573
 C            2.14995683       -1.72284012        1.84855673
 C            0.46753650       -1.36047699        3.44871636
 C            0.93412165       -2.27829155        2.42574438
 C           -0.91015760       -0.91722968        3.40789388
 C            0.46997904        0.98490525        3.30994116
 C           -0.90410147        0.52491281        3.19006663
 C            0.89793066        2.04099876        2.52315838
 C            2.71942455        0.64837771        1.58283007
 C            2.11560656        1.90197586        1.73330997
 C            3.37942249        0.33323658        0.39974976
 C            2.43248238       -1.93577009        0.49913485
 C            3.16656815       -0.97602158       -0.19827907
 C            1.67060057       -2.85816307       -0.21837803
 C            0.01185984       -2.90559596        1.59322285
 C            0.45815024       -3.40561556        0.37339404
 C           -1.83383356       -1.69850500        2.73033000
 C           -1.36071072       -2.73405099        1.81732315
 C           -2.96675938       -1.04290788        2.10734155
 C           -1.74937393        1.08736136        2.22961991
 C           -2.87796585        0.37771344        1.81844673
 C           -0.07034468        2.75379048        1.71041597
 C           -1.33874589        2.21024458        1.50180923
 C            2.00187117        2.81039909        0.59840862
 C            0.65433628        3.35972389        0.60154919
 C            3.45153717        1.30916598       -0.67318543
 C            2.61708260        2.49220373       -0.60551794
 C            2.91182278       -0.77428341       -1.61655707
 C            3.16191642        0.62320936       -1.92201300
 C            1.40863082       -2.62382300       -1.63144714
 C            1.84014228       -1.43421396       -2.20865965
 C           -0.49396158       -3.63773626       -0.69718613
 C            0.07860240       -3.12300220       -1.92901370
 C           -2.30334920       -2.81051889        0.70585540
 C           -3.25639999       -1.72891327        0.85842211
 C           -1.83167054       -3.09977733       -0.56556961
 C           -3.39266239        0.56941012        0.47406001
 C           -3.34278991       -0.72325082       -0.18592948
 C           -2.08507366        2.62424311        0.39867367
 C           -2.99924047        1.69031395       -0.23286712
 C           -0.00264790        3.58983710       -0.60068862
 C           -1.43457199        3.36588979       -0.66900344
 C            1.86512947        2.57865947       -1.84896563
 C            2.14816707        1.38160044       -2.62743348
 C            0.58208416        3.11651783       -1.84683316
 C            0.99711761       -0.74712492       -3.08955052
 C            1.11001096        0.69806130       -3.24724364
 C           -0.88505207       -2.22441951       -2.53284782
 C           -2.02259116       -2.12420483       -1.63283423
 C           -2.57781142       -0.87486607       -1.34273327
 C           -0.42033235       -1.08124470       -3.16109316
 C           -2.54924565        1.52483049       -1.60286575
 C           -1.72444188        2.67935926       -1.91888403
 C           -0.47162249        2.47910184       -2.62285857
 C           -0.23491196        1.25358544       -3.23281813
 C           -2.16177456        0.26082012       -2.04721294
 C           -1.16762123        0.15492147       -3.02098665
