58
Modified xyz file
 C            1.26033906        0.06228473        4.08998731
 C            2.42725664       -0.08603923        3.24524214
 C            2.45461488       -1.45950715        2.77044944
 C            0.44569220       -1.13291818        3.93251148
 C            1.18417782       -2.07303271        3.10366118
 C           -0.88125687       -0.71178390        3.50923587
 C            0.40143062        1.20826509        3.87956899
 C           -0.95715873        0.72112795        3.69008692
 C            0.67828799        2.10228233        2.76991270
 C            2.58168640        0.78200650        2.08604601
 C            1.62476762        1.74816180        1.80288983
 C            2.87490373       -1.43068098        1.38249430
 C            3.07990472       -0.03841678        1.00558273
 C            2.27976210       -2.28633004        0.45711814
 C            0.50123052       -2.77236201        2.11722310
 C            1.11734554       -2.97878332        0.81096777
 C           -1.43280576       -1.27503396        2.36448540
 C           -0.90092733       -2.47067609        1.88439802
 C           -2.26527874       -0.51158647        1.53860935
 C           -1.55727399        1.52256133        2.63877174
 C           -0.61598100        2.58651341        2.33482971
 C           -2.21189992        0.89166001        1.58180862
 C           -0.69651139        3.18996210        1.09482722
 C            1.43683411        2.16179336        0.48080411
 C            0.47599081        3.14331225        0.24137679
 C            2.82464733        0.32205757       -0.31205809
 C            1.94695675        1.38852233       -0.58279392
 C            2.51747449       -2.02441105       -0.88897048
 C            2.97096570       -0.69201444       -1.24946091
 C            1.51882469       -2.39533722       -1.87525069
 C            0.03679351       -3.12133417       -0.16069967
 C           -1.22065798       -2.91225807        0.53884204
 C            0.21230186       -2.62711927       -1.45150724
 C           -2.90128792       -1.14616902        0.47438419
 C           -2.27092292       -2.30885552       -0.12837850
 C           -3.45918025       -0.34921005       -0.59911759
 C           -2.47968755        1.64326334        0.43004751
 C           -1.82046354        2.85703173        0.24111910
 C           -3.14225565        1.06128511       -0.64736351
 C            0.01457599        3.38707194       -1.10597863
 C           -1.43642713        3.25222598       -1.10159611
 C            1.54620035        1.64873574       -1.91126232
 C            0.52685169        2.56088895       -2.16996204
 C            2.59003070       -0.45630415       -2.62025927
 C            1.77872813       -1.58696878       -3.04939572
 C            1.85846000        0.74845531       -2.92876238
 C            0.65801360       -1.06542768       -3.79548029
 C            0.81901063        0.37738050       -3.87458711
 C           -0.87734541       -2.07120282       -2.14413075
 C           -2.13714203       -2.04075070       -1.54700989
 C           -3.04073226       -0.94569848       -1.85864954
 C           -0.68028535       -1.32164695       -3.30692462
 C           -2.72237320        1.37521093       -2.00733553
 C           -1.81077240        2.40379387       -2.21943061
 C           -0.60383223        2.14793431       -2.98854772
 C           -0.49624254        0.97949065       -3.73190246
 C           -2.57782469        0.12003743       -2.73078740
 C           -1.44753342       -0.10145734       -3.50967878
