58
Modified xyz file
 C            1.25253645       -0.06359218        3.71125091
 C            2.50371914       -0.36970470        3.06063559
 C            2.41791417       -1.72525190        2.53523356
 C            0.41099792       -1.24879867        3.64527251
 C            1.08814372       -2.23242698        2.82350306
 C           -0.92618949       -0.81891023        3.27494176
 C            0.47100525        1.05512433        3.22344096
 C           -0.91978943        0.63468491        3.20919143
 C            0.94503177        1.85023098        2.18182692
 C            2.95011909        0.48300638        1.97788128
 C            2.18952155        1.58749268        1.58422264
 C            2.88147500       -1.68912159        1.15603046
 C            3.50309041       -0.39369094        0.95898535
 C            2.07900604       -2.21882489        0.14770656
 C            0.37865358       -2.86872304        1.81534753
 C            0.97375447       -2.99809867        0.49415948
 C           -1.64857463       -1.53030501        2.31970850
 C           -1.03899507       -2.58208133        1.63012658
 C           -2.76210473       -0.91343983        1.75613035
 C           -1.81607735        1.26800719        2.35264394
 C           -2.90097301        0.52915362        1.88627780
 C            0.03249794        2.69267975        1.55103889
 C           -1.39186155        2.39804133        1.64807743
 C            0.29419217        3.18529192        0.20929861
 C            2.52883197        2.21452832        0.38509840
 C            1.51656454        2.92262360       -0.37839241
 C            3.63852728        0.09251531       -0.33093386
 C            3.36646734        1.49985234       -0.56469117
 C            2.21711154       -1.74980912       -1.16315963
 C            3.04544282       -0.65470092       -1.42920996
 C            1.33693327       -2.19092573       -2.15090955
 C           -0.11495370       -3.17172395       -0.45100283
 C           -1.34627320       -2.79214119        0.22070354
 C            0.07538596       -2.80208387       -1.76846437
 C           -3.15912712       -1.25863866        0.40170075
 C           -2.26017833       -1.94980848       -0.40825995
 C           -3.66797500        1.00221472        0.74700627
 C           -3.91306155       -0.13783385       -0.12333057
 C           -1.99787936        2.74610776        0.36831969
 C           -0.91684785        3.00235984       -0.57087683
 C           -3.13360075        2.07756009       -0.06504150
 C           -0.86682418        2.31052522       -1.78236589
 C            1.54632093        2.40923682       -1.73738247
 C            2.76185475        1.62826804       -1.87990679
 C            2.67066215        0.30369503       -2.46223659
 C            0.36980936        1.94568527       -2.32552478
 C            1.07637350       -1.33765170       -3.29624246
 C            1.58807647        0.01876178       -3.28101265
 C            0.44081074        0.91866696       -3.27229602
 C           -0.98713355       -2.09779208       -2.46417950
 C           -2.06682829       -1.57819941       -1.74968898
 C           -0.36294944       -1.27244881       -3.48578846
 C           -0.74104534        0.12685739       -3.57656366
 C           -3.67338555        0.28115254       -1.48328167
 C           -3.21926948        1.66458139       -1.45455218
 C           -2.03555743        1.75314536       -2.29679567
 C           -2.72398288       -0.46588752       -2.28286560
 C           -1.95939303        0.51056440       -3.04080477
