58
Modified xyz file
 C            1.41667521        0.01392870        4.22562855
 C            0.62848013       -1.18874420        4.03282450
 C            1.42206969       -2.10870901        3.25494612
 C            2.57857906       -0.07760644        3.35517363
 C            2.58346425       -1.38914157        2.75089073
 C            2.55457857        1.06978822        2.47796346
 C            0.61865486        1.14470535        3.77939881
 C            1.40496054        1.88537898        2.82990605
 C           -0.66621808       -0.79552613        3.50950460
 C           -0.66262450        0.65242798        3.33993417
 C           -1.28706148       -1.57061846        2.52968026
 C            0.79183705       -2.74450534        2.12196945
 C           -0.58622131       -2.63689772        1.93236852
 C            2.56977554       -1.48656718        1.29733206
 C            1.65433225       -2.55440217        0.96678819
 C            2.82467495        0.91124020        1.12029591
 C            2.55820953       -0.33069643        0.52036475
 C            2.65940063        2.05810578        0.35646489
 C            0.76671894        2.53027622        1.78076939
 C            1.62930842        2.98657684        0.79617037
 C           -1.24035542        1.18904529        2.18907925
 C           -0.51432051        2.08958204        1.38325806
 C           -2.34011500       -0.96585041        1.84452666
 C           -2.29530347        0.47367473        1.63359760
 C           -2.89284612       -1.57897268        0.65380587
 C           -1.06634868       -3.19564258        0.75075469
 C           -2.33177257       -2.75932380        0.19281499
 C            1.05291329       -2.58364421       -0.28315501
 C           -0.13221622       -3.30584669       -0.35723760
 C            1.98961466       -0.38223220       -0.76279451
 C            1.25256651       -1.51362160       -1.17238412
 C            2.52486157        1.94157217       -1.07701717
 C            2.12709306        0.71976774       -1.61398501
 C            1.07616698        3.61886038       -0.37291087
 C            1.86237361        3.16269531       -1.50425755
 C           -0.97341789        2.38473313        0.08217853
 C           -0.30505962        3.34144026       -0.68120104
 C           -2.71354816        0.73719704        0.27230482
 C           -3.22832949       -0.50594389       -0.27685803
 C           -1.94541918        1.57645746       -0.52358332
 C           -3.15952382       -0.71716927       -1.64725109
 C           -2.28138017       -3.02462692       -1.23427745
 C           -0.89226566       -3.29575417       -1.58037281
 C           -2.77213236       -2.02043293       -2.15777195
 C            0.57931555       -1.50922972       -2.40866177
 C           -0.50518838       -2.36568257       -2.61495257
 C           -1.73208210       -1.80788719       -3.14852043
 C            1.56456976        0.69031553       -2.88725487
 C            0.69461093       -0.40791102       -3.25494229
 C            0.96915549        3.10523806       -2.63795017
 C           -0.38726328        3.27914768       -2.12564496
 C            0.97618345        1.90131402       -3.44125375
 C           -2.02284170        1.46105375       -1.92137289
 C           -2.52859011        0.28721373       -2.48721667
 C           -1.73140186       -0.40467323       -3.49446564
 C           -0.51674760        0.16037130       -3.84604417
 C           -1.21375944        2.25698614       -2.72832511
 C           -0.40679029        1.59876570       -3.73903205
