58
Modified xyz file
 C            1.27122776       -0.00339196        4.29398407
 C            2.52420441       -0.32348515        3.65132783
 C            2.31742095       -1.56622223        2.91310996
 C            0.40538705       -1.15684079        4.12305265
 C            0.90503384       -1.86979650        2.96557399
 C           -0.94490088       -0.65051339        4.08281558
 C            0.51545623        1.13267391        3.80063740
 C           -0.86005748        0.80651089        4.09892438
 C            0.84802904        1.68593231        2.55633969
 C            3.06739491        0.64263293        2.71895669
 C            2.17656342        1.64088569        2.14390681
 C            2.93184978       -1.40440240        1.61731626
 C            3.60718717       -0.11878033        1.61634976
 C            2.22559053       -1.75578267        0.47172199
 C            0.16839290       -1.85989432        1.77695449
 C            0.83548708       -1.96387262        0.54400191
 C           -1.77461918       -0.99512892        2.94977235
 C           -1.20462619       -1.56864642        1.80642572
 C           -1.88900555        1.30298344        3.21750902
 C           -2.64021538        0.14384714        2.77178608
 C           -0.15465016        1.99497574        1.62183148
 C           -1.48982418        2.01228563        2.01735127
 C            0.14103054        2.05460073        0.25070313
 C            2.48911337        1.72873973        0.72902025
 C            3.47492017        0.69778948        0.42744388
 C            1.46887466        1.96328669       -0.19179738
 C            2.76857294       -1.31555569       -0.72720572
 C            3.33708126        0.02605212       -0.77331541
 C            2.02786469       -1.51056052       -1.95007931
 C            0.08497504       -2.06460786       -0.63971232
 C            0.73921581       -2.01960591       -1.88514237
 C           -1.90972083       -1.48586791        0.59941191
 C           -1.31360816       -1.98130702       -0.56683487
 C           -3.07343998        0.42367258        1.43075533
 C           -2.50647699        1.70211919        1.03498142
 C           -2.99267248       -0.59073544        0.49591517
 C           -0.90221551        2.16660525       -0.68764165
 C           -2.21735697        1.85995565       -0.31629863
 C           -0.59407920        2.26237896       -2.04598841
 C            1.72574537        1.69226491       -1.53761334
 C            2.65583456        0.70422589       -1.85364988
 C            2.27606783       -0.34287806       -2.78022582
 C            0.76762051        2.02295217       -2.48598212
 C            1.36395065       -0.03995574       -3.77755132
 C            0.71337990        1.25989996       -3.72703584
 C            0.00686910       -2.01405168       -3.06808742
 C            0.34457961       -1.02876062       -4.08530301
 C           -2.08262689       -2.05112413       -1.72806116
 C           -1.43133632       -2.11247753       -3.01849183
 C           -3.40728940       -0.21569957       -0.76807924
 C           -3.00227453        1.11264774       -1.19857558
 C           -3.18345112       -1.12582995       -1.86144556
 C           -1.48997672        1.67328011       -3.03306171
 C           -0.68150045        1.07922651       -4.08665637
 C           -0.87135648       -0.31891316       -4.43621939
 C           -1.97987164       -1.04684447       -3.85080333
 C           -2.64394443        1.03261461       -2.60078964
 C           -2.94382397       -0.32350698       -3.04623184
