58
Modified xyz file
 C            1.40365710       -0.01943036        3.77857522
 C            2.64471512       -0.21068664        3.05316893
 C            2.62686064       -1.55403569        2.50659315
 C            0.55777816       -1.17996804        3.52981607
 C            1.28308362       -2.08458367        2.66950143
 C           -0.73083067       -0.69954165        3.09179503
 C            0.61021570        1.16716782        3.51244868
 C           -0.76503260        0.73105329        3.33957365
 C            1.12091460        2.16449463        2.68610525
 C            2.97619502        0.69908000        1.97070897
 C            2.29757352        1.90481542        1.86104039
 C            3.17603719       -1.49582815        1.16295556
 C            3.19316298       -0.09475785        0.77085738
 C            2.71388526       -2.42457755        0.24737835
 C            0.66002964       -2.62805608        1.54971810
 C            1.50735110       -3.16171236        0.58500574
 C           -1.28670723       -1.19127700        1.91397916
 C           -0.62111946       -2.18148818        1.16612939
 C           -2.35929202       -0.49523287        1.35572369
 C           -1.64103882        1.50836126        2.59563957
 C           -2.56139420        0.84470434        1.68995303
 C            0.20668132        2.98622686        1.90609444
 C           -1.15537196        2.70449120        1.92021559
 C            2.02812138        2.43806529        0.53874520
 C            0.86459140        3.30366416        0.64853061
 C            2.59601303        0.29900855       -0.43109944
 C            2.17738198        1.62320665       -0.58423608
 C            2.53770167       -2.00893153       -1.12807674
 C            2.26433293       -0.66560322       -1.39522129
 C            0.95385352       -3.65201237       -0.65356167
 C            1.71992854       -3.04218804       -1.73246513
 C           -1.20191517       -2.65775118       -0.02480243
 C           -0.44309713       -3.40709971       -0.92511332
 C           -3.01395602       -1.01701264        0.25117562
 C           -2.39327055       -2.09668119       -0.48818807
 C           -3.60982214       -0.10303182       -0.71003166
 C           -2.91300370        1.79829489        0.65016699
 C           -1.94410334        2.88181976        0.70836422
 C           -3.34499554        1.31934211       -0.57959073
 C            0.10510182        3.55496894       -0.48706703
 C           -1.33338525        3.32857566       -0.45960127
 C            1.59984143        2.02377337       -1.78181327
 C            0.60260179        3.08237549       -1.76636313
 C            1.48452735       -0.31612771       -2.50986052
 C            1.15855407        1.01702085       -2.72516641
 C            0.78642038       -2.66788382       -2.76875122
 C           -0.53383387       -3.09737597       -2.33970998
 C            0.68194136       -1.27147286       -3.13318473
 C           -2.54300652       -1.80555859       -1.91108393
 C           -3.18644929       -0.51548854       -2.03522007
 C           -1.48585263       -2.08765804       -2.75885037
 C           -0.72824436       -0.97801715       -3.32924123
 C           -2.68007328        1.75809276       -1.79891029
 C           -1.72639813        2.76729772       -1.74480404
 C           -0.53315053        2.64154008       -2.55817604
 C           -0.20315130        1.34688042       -3.12558533
 C           -2.43665959        0.58002145       -2.62339383
 C           -1.16389831        0.33672752       -3.15079016
