58
Modified xyz file
 C            1.56493523       -0.20836828        4.60012349
 C            0.70177294       -1.36021904        4.76177166
 C            1.28187366       -2.44691373        3.99206741
 C            2.57333311       -0.53659068        3.60051061
 C            2.37759173       -1.90789196        3.20095014
 C            2.51459806        0.48479882        2.57554493
 C            0.75612332        0.86729261        4.05683494
 C            1.51245635        1.45088164        2.97970398
 C           -0.58847407       -1.03207213        4.17093775
 C           -0.55622872        0.34905100        3.73042583
 C            0.27098636       -2.90454600        3.06132673
 C           -0.89443774       -2.04740637        3.18966309
 C            2.09394182       -2.18243767        1.80216799
 C            0.88669412       -2.98787376        1.74785646
 C            2.55073224        0.13543162        1.21973979
 C            2.25888314       -1.18458364        0.83644408
 C            2.26575914        1.16172507        0.30919450
 C            0.81827828        2.04493270        1.94829191
 C            1.54667896        2.25969221        0.79843964
 C           -1.08842785        0.66840175        2.47848253
 C           -0.53763437        1.73910734        1.77184157
 C           -1.50714743       -1.66500489        2.00602339
 C           -1.78110429       -0.31010067        1.76300218
 C            0.05707770       -2.81247985        0.64855028
 C           -1.26739864       -2.47141963        0.90372691
 C            1.67835971       -1.40086549       -0.41604766
 C            0.62370668       -2.31884978       -0.52393884
 C            2.18747911        0.85487830       -1.05445158
 C            1.86979994       -0.45448291       -1.42190407
 C            2.00032492        1.90086737       -1.96103588
 C            0.98352438        3.14455298       -0.09419580
 C            1.47633704        3.14889498       -1.44794695
 C           -1.12664392        2.12919846        0.56246115
 C           -0.46558897        3.13269444       -0.15160742
 C           -2.33673229        0.02077902        0.51916424
 C           -1.94399717        1.21139100       -0.12606486
 C           -2.10264491       -2.29644909       -0.17923487
 C           -2.82442243       -1.04230146       -0.24009021
 C           -0.17318043       -2.31524513       -1.66979331
 C           -1.54925181       -2.49352615       -1.50229627
 C            1.37699252       -0.73044330       -2.69592821
 C            0.32422853       -1.72054574       -2.82773055
 C            1.35657823        1.65631955       -3.24169218
 C            1.09417372        0.35126509       -3.62611191
 C            0.37573139        3.57066518       -2.29076158
 C           -0.84654311        3.42032562       -1.51321093
 C            0.30342725        2.64688850       -3.40394398
 C           -2.28135836        1.43295146       -1.48329490
 C           -1.68827055        2.47247836       -2.19876120
 C           -1.06866669        2.18712151       -3.48902027
 C           -3.18697463       -0.84045969       -1.62346539
 C           -2.49356236       -1.85879693       -2.40274118
 C           -2.90016287        0.43334625       -2.23023499
 C           -0.58167974       -1.27751955       -3.87756005
 C           -0.17416823        0.05610979       -4.28081566
 C           -1.30544596        0.95390150       -4.07775941
 C           -2.00454912       -1.23720208       -3.61257909
 C           -2.40768292        0.15865148       -3.57102798
