58
Modified xyz file
 C            1.38103557       -0.18030983        4.68554753
 C            0.54356061       -1.35398609        4.53509801
 C            1.15185236       -2.20185311        3.52507551
 C            2.48756239       -0.30259830        3.74947203
 C            2.24755619       -1.47181654        2.92542319
 C            2.63156625        0.97676123        3.09691968
 C            0.60024301        0.97145137        4.26934473
 C            1.46710689        1.78272855        3.44705136
 C           -0.73825589       -0.91921268        4.00588952
 C           -0.64426640        0.48870140        3.69101356
 C            0.09053577       -2.64220713        2.64561457
 C           -1.08046086       -1.82020666        2.93113201
 C            0.38927652       -2.87244854        1.30504632
 C            2.26231866       -1.36190056        1.53452340
 C            1.57176288       -2.32296023        0.78681166
 C            2.74915097        1.00878558        1.65026627
 C            2.65626944       -0.16409850        0.91168697
 C            0.93616666        2.30359094        2.20686545
 C            1.96703935        2.13487771        1.20514372
 C           -1.01832473        0.90795739        2.41057349
 C           -0.37235025        2.00639488        1.82823717
 C           -1.78934144       -1.32731624        1.84141274
 C           -1.79540943        0.05826064        1.60176931
 C           -0.70751093       -3.00021443        0.45986673
 C           -1.86988045       -2.18204904        0.75411863
 C           -0.51675669       -3.01206104       -0.97790696
 C            1.80778260       -2.37406974       -0.58467019
 C            0.76143878       -2.84328606       -1.47862199
 C            2.48480621       -0.04088062       -0.46928707
 C            2.41359841       -1.21421433       -1.20791208
 C            1.54366457        2.16161447       -0.11210263
 C            1.95909631        1.15749180       -0.99339708
 C           -0.73085227        2.36925749        0.53426274
 C            0.30043009        2.72537275       -0.33796669
 C           -2.27550722        0.54799728        0.37493244
 C           -1.90108050        1.84311100       -0.00394044
 C           -2.39457146       -1.68797714       -0.49256406
 C           -1.63050627       -2.28636526       -1.57458954
 C           -2.74744833       -0.35378242       -0.59542752
 C           -1.46016771       -1.55093834       -2.74779248
 C            0.93275969       -2.17085788       -2.75074376
 C            1.97993380       -1.17200156       -2.58552427
 C           -0.20666027       -1.51037106       -3.36720648
 C            1.48167649        1.21775795       -2.31706840
 C            1.48048120        0.07607195       -3.11866551
 C            0.29489979       -0.25137583       -3.89802107
 C           -0.01323378        3.04503442       -1.64421953
 C            0.65629744        2.28632491       -2.68747275
 C           -2.35832820        2.37994258       -1.20572637
 C           -1.41344910        3.14563670       -1.99777809
 C           -3.04757369        0.10275383       -1.87310427
 C           -2.37168697       -0.52613939       -3.00319902
 C           -3.08869254        1.52506879       -2.11414391
 C           -0.60527381        0.75645713       -4.20885372
 C           -0.29705632        2.10528557       -3.77241385
 C           -1.54244060        2.75016646       -3.38737279
 C           -2.01234722        0.52153133       -3.94135428
 C           -2.60043556        1.76111247       -3.46405194
