58
Modified xyz file
 C            1.41280977        0.16161378        4.20579740
 C            0.59697447       -1.04046382        4.20302904
 C            1.34134377       -2.07883703        3.51649846
 C            2.56490368       -0.08255028        3.35528190
 C            2.57486820       -1.48763877        3.02137054
 C            2.53310145        0.87945623        2.26706964
 C            0.63447851        1.22361193        3.59587419
 C            1.38334175        1.74283761        2.46575813
 C           -0.72158342       -0.68621208        3.70804916
 C           -0.70496230        0.72229989        3.34720268
 C           -1.39227916       -1.57384850        2.87878378
 C            0.70777135       -2.78318350        2.41245658
 C           -0.65468910       -2.63952726        2.20247459
 C            2.70567587       -1.84741218        1.62667104
 C            1.60462398       -2.72516598        1.27037193
 C            2.82184784        0.46880436        0.96731836
 C            3.08353532       -0.88756028        0.69711590
 C            2.42257849        1.30627851       -0.07864558
 C            0.66751790        2.14988774        1.34520933
 C            1.28828464        2.11604572        0.09347360
 C           -1.34281892        1.13207537        2.17858152
 C           -0.72450198        2.11100582        1.40152807
 C           -2.34496785       -1.04500595        1.91929166
 C           -2.31125920        0.31003767        1.58970824
 C           -1.15954021       -2.71358014        0.84478203
 C           -2.43315848       -2.01989502        0.85075295
 C            1.09614416       -2.64359029       -0.03103889
 C           -0.28681791       -2.52518081       -0.22954565
 C            3.05686374       -1.30942992       -0.62568924
 C            1.96620514       -2.19148522       -1.02237205
 C            2.91280459        1.04373317       -1.35194907
 C            3.23442330       -0.32773415       -1.67175570
 C            2.24544925        1.60148130       -2.50667081
 C            0.59635043        2.63562270       -1.01118432
 C            1.05057203        2.39480786       -2.30604052
 C           -1.43919523        2.67135174        0.35819850
 C           -0.71952253        3.06437325       -0.83976515
 C           -2.92214837        0.72488639        0.40087698
 C           -2.66131422        2.01549495       -0.06471241
 C           -2.95818974       -1.60860426       -0.35763661
 C           -3.44471111       -0.24651565       -0.46174146
 C           -0.79440102       -2.00482679       -1.42944693
 C           -2.17218023       -1.83789174       -1.55517953
 C            1.43135533       -1.68866439       -2.27375369
 C            2.38789589       -0.72233928       -2.78235873
 C            1.88842473        0.49220465       -3.38378828
 C            0.06796736       -1.42436104       -2.36807038
 C            0.10157762        1.96656762       -3.32159078
 C            0.46826193        0.59999647       -3.63749314
 C           -0.39122124       -0.42519196       -3.24569417
 C           -1.65082398        2.97396859       -1.95457199
 C           -2.87636208        2.36457116       -1.46023205
 C           -1.24417878        2.26223419       -3.15403628
 C           -3.56505531        0.01269621       -1.88682048
 C           -2.69110273       -0.93704987       -2.56386603
 C           -1.75573585       -0.18050448       -3.36611493
 C           -3.27138726        1.33464783       -2.39675421
 C           -2.21384429        1.20165791       -3.38500714
