58
Modified xyz file
 C            1.49791304        0.11455361        4.22212100
 C            0.69438283       -1.07189316        3.98691883
 C            1.51995454       -2.01155736        3.26745146
 C            2.64412146        0.04607134        3.33057283
 C            2.72385516       -1.30799104        2.83849684
 C            2.51968375        1.12673452        2.37079121
 C            0.70821794        1.26542132        3.82593252
 C            1.48508335        2.02110444        2.86400890
 C           -0.55622241       -0.65148684        3.38480659
 C           -0.60612173        0.79810683        3.41897111
 C           -1.03816248       -1.29536033        2.24886832
 C            0.96886377       -2.65700387        2.09180339
 C           -0.32187305       -2.35103891        1.65842211
 C            2.84833797       -1.52170522        1.41055231
 C            2.03144227       -2.67852390        1.10928413
 C            2.58676838        0.86450456        0.99944405
 C            2.81613356       -0.44131570        0.52679688
 C            2.14672889        1.85526410        0.11565473
 C            0.78620788        2.78216246        1.94198993
 C            1.25962935        2.82827933        0.57000998
 C           -1.24355634        1.45925877        2.37191455
 C           -0.65777981        2.62318592        1.86933528
 C           -2.03389539       -0.65521014        1.51334341
 C           -2.12469834        0.74227645        1.55635923
 C           -2.67881064       -1.37409723        0.51350554
 C           -0.70248362       -2.79790115        0.38949767
 C           -1.98427424       -2.50608926       -0.06797130
 C            1.68573484       -2.90114029       -0.21094660
 C            0.28971344       -3.15515766       -0.52974315
 C            2.64571467       -0.71904110       -0.83217539
 C            2.17810811       -1.97844060       -1.22022249
 C            2.26000101        1.65298728       -1.25416115
 C            2.60861987        0.33331485       -1.73867351
 C            1.23551120        2.19379777       -2.13741224
 C            0.12469877        3.19652226       -0.26369837
 C           -1.07048796        3.12601643        0.57103662
 C            0.08441421        2.75296187       -1.58569997
 C           -2.82021352        1.42956724        0.56068239
 C           -2.25158315        2.65490659        0.02258108
 C           -3.38596367       -0.68061151       -0.54929158
 C           -3.43795458        0.70462017       -0.53681295
 C           -2.25294434       -2.50953710       -1.49645721
 C           -3.10104717       -1.36935610       -1.79809087
 C            0.12103324       -2.84947301       -1.94419085
 C            1.29828859       -2.10798082       -2.37382646
 C           -1.13448263       -2.49703879       -2.41990941
 C            1.96419187        0.14815016       -3.02927361
 C            1.12497813        1.30736951       -3.28214020
 C            1.16583006       -1.04216352       -3.25345431
 C           -2.49415641       -0.63389858       -2.89632822
 C           -1.28180974       -1.33750982       -3.28815552
 C           -0.18775575        0.83680238       -3.68173218
 C           -0.15815093       -0.61857835       -3.68532932
 C           -1.14879948        2.55978530       -2.21347448
 C           -2.36500124        2.60033978       -1.42078367
 C           -3.16446120        1.43684356       -1.76388607
 C           -1.30896744        1.50393399       -3.20532607
 C           -2.51250484        0.75625859       -2.87198578
