58
Modified xyz file
 C            1.66413836        0.01374289        4.06195923
 C            0.83272914       -1.13522589        3.76240723
 C            1.40372153       -1.82987977        2.61922771
 C            2.72764284        0.05309873        3.07726387
 C            2.53413723       -1.05181286        2.14859563
 C            2.77948458        1.40015600        2.54025711
 C            0.85093089        1.20202632        3.87179429
 C            1.56754347        2.08885851        2.97239557
 C           -0.53946515       -0.67504731        3.66263942
 C           -0.49064318        0.77043233        3.50839342
 C           -1.39278920       -1.39786482        2.84667049
 C            0.53286463       -2.37756452        1.68809926
 C           -0.81982854       -2.44362695        2.01784395
 C            0.89776832       -2.38724550        0.34104630
 C            2.67915409       -0.80470617        0.78454113
 C            1.82568064       -1.44618667       -0.12954478
 C            3.21628988        1.54946724        1.23176652
 C            3.35448193        0.35604654        0.41220232
 C            2.61801633        2.56822409        0.38586648
 C            0.83271221        2.82889039        2.05325379
 C            1.39302300        3.11669468        0.74143829
 C           -1.12411713        1.36713547        2.41713569
 C           -0.58111109        2.53231253        1.87119188
 C           -2.32849235       -0.68308233        1.99854827
 C           -2.11056853        0.66248241        1.71717030
 C           -1.78499829       -2.72827988        0.97648371
 C           -2.69573683       -1.58953527        0.91883575
 C            0.07542550       -3.06129262       -0.56032384
 C           -1.32375696       -3.27100587       -0.21053144
 C            0.13005553       -2.71756647       -1.96755068
 C            1.84100990       -1.09264781       -1.49234135
 C            0.87143369       -1.60712590       -2.35720285
 C            3.33405166        0.78596868       -0.96439062
 C            2.83392071        2.15535532       -0.98791536
 C            2.55241626        0.02894459       -1.91504397
 C            1.72285973        2.18254144       -1.92250813
 C            1.87542553        1.00163555       -2.74948403
 C            0.29591665        3.12682066       -0.22005539
 C           -0.93823712        2.93670251        0.52325770
 C            0.44850023        2.52972275       -1.47377233
 C           -2.65957009        1.20013737        0.55527783
 C           -2.00874950        2.32294124       -0.10047202
 C           -3.06906375       -1.07307961       -0.32212368
 C           -3.16211659        0.31040859       -0.48482890
 C           -2.11462070       -3.05444328       -1.40423243
 C           -1.19711729       -2.94361492       -2.52125435
 C           -2.99371727       -1.89905189       -1.44436987
 C           -1.75680951       -1.97362867       -3.44076019
 C           -2.86606611       -1.31166332       -2.76728658
 C            0.47067250       -0.84340133       -3.45942597
 C            0.78645999        0.57138659       -3.48135709
 C           -0.88553301       -0.94708791       -3.96808695
 C           -0.67013745        2.02641191       -2.14843533
 C           -1.91421556        2.00887899       -1.51456649
 C           -2.84716879        0.92194274       -1.76937647
 C           -2.67545793        0.12204707       -2.88954577
 C           -0.47860496        1.26140934       -3.29977267
 C           -1.51977411        0.34284410       -3.73900363
