58
Modified xyz file
 C            1.12562504       -0.06750293        4.17024699
 C            2.35450029       -0.31634740        3.43796863
 C            2.30245206       -1.68459890        2.95698272
 C            0.28559144       -1.25124909        4.04174718
 C            0.93361355       -2.14166877        3.10243886
 C           -1.06064522       -0.81254617        3.75729336
 C            0.31384650        1.08443915        3.82127085
 C           -1.06499614        0.64123465        3.79097236
 C            0.75571026        1.97368170        2.84638828
 C            2.68911668        0.52930122        2.30645228
 C            1.96158673        1.68773684        2.07450507
 C            2.88567307       -1.71500180        1.62847498
 C            3.02371864       -0.33517544        1.18469751
 C            2.37647879       -2.63795121        0.72778903
 C            0.26289718       -2.56940213        1.95623893
 C            1.04199139       -3.17249211        0.97416346
 C           -1.67545198       -1.21893233        2.50663871
 C           -0.95022751       -1.96170054        1.58364044
 C           -1.92090245        1.09340215        2.71222666
 C           -2.43774106       -0.08534138        2.03146631
 C           -0.20638077        2.60047055        1.94671205
 C           -1.54286173        2.18644814        1.93515448
 C            1.71882617        2.10375535        0.70610256
 C            0.47882714        2.85127049        0.68326921
 C            2.61547977        0.00464790       -0.10799962
 C            1.99143749        1.23924350       -0.34579371
 C            2.43955502       -2.32700785       -0.68561624
 C            2.57283536       -0.99696344       -1.08610020
 C            0.44652062       -3.47621032       -0.31038506
 C            1.43049134       -3.14731165       -1.32546730
 C           -1.33358206       -1.90679404        0.23739466
 C           -0.78223612       -2.80258984       -0.66751633
 C           -2.72735921        0.03360398        0.67734292
 C           -2.11016888       -0.83963255       -0.23604263
 C           -2.29228315        2.42033399        0.78657600
 C           -3.06640368        1.31100558        0.25583651
 C           -0.26580462        2.88347594       -0.48933427
 C           -1.64527069        3.02423652       -0.36060379
 C            1.40400679        1.49309547       -1.58365235
 C            0.26893678        2.32231291       -1.65980321
 C            2.21998206       -0.65825227       -2.39187689
 C            1.78333731        0.69745701       -2.66083589
 C            0.72454700       -2.58675274       -2.45551613
 C           -0.67165492       -2.41857581       -2.06075308
 C            1.33761741       -1.54973135       -3.14069458
 C           -2.17377073       -0.57933266       -1.62093541
 C           -1.36795348       -1.30161434       -2.51658596
 C           -3.27326651        1.55856454       -1.15072752
 C           -2.50921077        2.75105610       -1.49213963
 C           -2.88814674        0.52838917       -2.08702248
 C           -0.45802454        2.42113457       -2.85108491
 C           -1.90175623        2.51408698       -2.78180146
 C           -2.41291604        1.23879086       -3.25726057
 C            0.96875877        0.64690681       -3.85580896
 C            0.49981582       -0.72159594       -3.98142774
 C           -0.91942710       -0.69657109       -3.69539806
 C           -0.19336295        1.50206802       -3.93832380
 C           -1.36197123        0.63669601       -4.04348320
