58
Modified xyz file
 C            1.59497432        0.03106708        3.88599780
 C            0.76757697       -1.15766919        3.81167379
 C            1.29751601       -2.01360619        2.76542910
 C            2.59740120       -0.06009955        2.83846921
 C            2.42726971       -1.32174877        2.15632865
 C            2.52270500        1.14591288        2.04917260
 C            0.74740807        1.17240182        3.58663966
 C            1.36475250        1.90483783        2.50409169
 C           -0.61271090       -0.72976114        3.71165073
 C           -0.60468057        0.69157818        3.39768956
 C           -1.49359043       -1.54937251        3.02640101
 C            0.40439238       -2.70469258        1.94603174
 C           -0.96169539       -2.65538518        2.23865786
 C            0.82865508       -3.08263589        0.67071171
 C            2.56671667       -1.36099160        0.77351618
 C            2.00959463       -2.44722395        0.10763427
 C            2.75455740        1.07148949        0.67908277
 C            2.85802376       -0.18602393        0.05957685
 C            2.35119847        2.16992563       -0.07500595
 C            0.55532704        2.49599148        1.54038970
 C            1.18535600        2.91235632        0.37078937
 C           -1.33064197        1.14858354        2.29868173
 C           -0.81252672        2.18880343        1.50617361
 C           -2.54344241       -0.93604444        2.23565564
 C           -2.42899340        0.39936126        1.85579639
 C           -1.93457963       -2.94769019        1.19826060
 C           -2.95126189       -1.91037670        1.23927849
 C           -0.13264468       -3.26009649       -0.41237779
 C           -1.48273386       -3.07314098       -0.17239867
 C            1.84959706       -2.40987825       -1.33246850
 C            0.45179606       -2.69677167       -1.61469271
 C            3.00026267       -0.25406109       -1.32992096
 C            2.48034102       -1.40752308       -2.05070596
 C            2.31217672        2.09033399       -1.52186480
 C            2.74225222        0.92602514       -2.14180353
 C            0.40131354        3.26918253       -0.79832373
 C            1.09972303        2.76676051       -1.97329963
 C           -1.60441868        2.75054241        0.50617379
 C           -0.98363056        3.20157027       -0.72959403
 C           -3.16670562        0.83184936        0.75794367
 C           -2.85465069        2.11107459        0.15590205
 C           -3.18543848       -1.45329575       -0.11869670
 C           -2.21600589       -2.11081571       -0.98162843
 C           -3.44848518       -0.10806503       -0.31972463
 C           -0.28139005       -1.80567222       -2.39704912
 C           -1.54151389       -1.37095464       -1.95729890
 C            1.83239672       -0.92326996       -3.25700392
 C            2.11278785        0.49574980       -3.37731086
 C            0.39624752       -1.10548841       -3.39152362
 C            0.37146146        2.26649761       -3.04825410
 C            0.89266530        1.14822504       -3.81520776
 C           -0.15305073        0.13705058       -3.88577419
 C           -1.73835036        2.64327792       -1.84378939
 C           -2.87696206        1.93505003       -1.28733898
 C           -3.00547120        0.51252810       -1.55157111
 C           -2.03827247       -0.11322255       -2.33592141
 C           -1.06052963        2.06443396       -2.91088946
 C           -1.33206905        0.67311687       -3.24236142
