58
Modified xyz file
 C            1.19772159       -0.09921450        4.20976343
 C            2.53194520       -0.34504116        3.70352731
 C            2.47500309       -1.56034733        2.89994691
 C            0.41234795       -1.29430724        3.95386364
 C            1.09888600       -2.03225315        2.91450230
 C           -0.94579585       -0.86325790        3.70878866
 C            0.44040765        1.01581434        3.66703398
 C           -0.94003239        0.59268311        3.68488980
 C            0.93369292        1.70598466        2.55505096
 C            3.14861615        0.68205994        2.89001956
 C            2.31683368        1.75554577        2.36782331
 C            3.09929935       -1.27244326        1.61609494
 C            3.74481445        0.01946299        1.74403771
 C            2.39808770       -1.58055241        0.44901932
 C            0.46609896       -2.25959278        1.69390336
 C            1.26333381       -2.38444223        0.55918747
 C           -1.60925587       -1.30045050        2.49443573
 C           -0.90739087       -2.01218914        1.53412495
 C           -1.79077950        1.00293260        2.59686458
 C           -2.41586458       -0.19041550        2.04951083
 C            0.05675194        2.10910641        1.52402286
 C           -1.33329491        1.95756039        1.69787292
 C            0.56557967        2.48946058        0.26384197
 C            2.84755711        2.07314710        1.06351022
 C            3.66137605        0.94182984        0.63497367
 C            1.92233134        2.36486356       -0.00602257
 C            2.58330024       -0.81633636       -0.71545890
 C            3.10331637        0.47194358       -0.61746772
 C            2.31030451        1.55792635       -1.14454224
 C            1.80102137       -1.11033020       -1.83714286
 C            0.68187108       -2.87288787       -0.59754233
 C            1.14640217       -2.33945976       -1.85679280
 C           -1.45572790       -2.09819938        0.25443547
 C           -0.76483769       -2.87350449       -0.66788661
 C           -2.82053287       -0.13219617        0.72054821
 C           -2.35071192       -1.10093762       -0.18841406
 C           -2.18638461        2.21279834        0.62996467
 C           -3.09599256        1.14446283        0.24827044
 C           -0.28892036        2.53791620       -0.83761776
 C           -1.64144348        2.72893490       -0.60185308
 C            1.32852904        1.24535525       -2.06815282
 C            1.29775739       -0.04358548       -2.60075923
 C            0.15102856        1.98832090       -2.05317875
 C            0.44820815       -0.28644696       -3.68147718
 C            0.09538726       -2.59269828       -2.82224730
 C           -1.12783184       -2.82884621       -2.06477524
 C           -0.19295030       -1.58025378       -3.81198437
 C           -2.63535474       -0.95818831       -1.56431590
 C           -2.09905695       -1.85121775       -2.49462551
 C           -1.62611512       -1.35107062       -3.77645442
 C           -3.42776929        1.32665720       -1.14191275
 C           -2.61253922        2.42691346       -1.63711249
 C           -3.23526951        0.21235626       -2.03982507
 C           -0.71375153        1.86301146       -3.13871457
 C           -0.55307086        0.71581228       -4.01890991
 C           -1.84357053        0.04257924       -4.10431830
 C           -2.13670902        2.05207176       -2.94994422
 C           -2.77685647        0.79315504       -3.29038024
