58
Modified xyz file
 C            1.70115385        0.21780900        4.30880579
 C            0.87029706       -0.97125137        4.25662363
 C            1.57552571       -1.94918607        3.45355729
 C            2.70478289        0.09985760        3.26211113
 C            2.68041212       -1.26429905        2.79343293
 C            2.47059228        1.16859794        2.30613972
 C            0.86615417        1.35333754        3.97241368
 C            1.55800762        2.10390656        2.94349431
 C           -0.47039956       -0.57119848        3.85689666
 C           -0.47093694        0.86973274        3.66618170
 C           -1.18263854       -1.36700417        2.97182559
 C            0.83879911       -2.67295434        2.43239710
 C           -0.53733407       -2.51341310        2.34084871
 C            2.54486675       -1.50269788        1.37303968
 C            1.62322765       -2.60942718        1.21308394
 C            2.30341653        0.87778787        0.94432121
 C            2.45436080       -0.43691798        0.47465574
 C            1.71602403        1.84862322        0.11855685
 C            0.78083592        2.89506831        2.12104805
 C            1.12758703        2.96346321        0.71854759
 C           -1.12932120        1.43807173        2.57285537
 C           -0.65677705        2.67444891        2.13915032
 C           -2.01755031       -0.72916680        1.96959715
 C           -1.83989439        0.61770623        1.67745797
 C           -1.16530052       -2.70341382        1.04723856
 C           -2.17582835       -1.67102215        0.87998988
 C            0.98511649       -2.72666507       -0.01368029
 C           -0.38110489       -3.03151233       -0.05378391
 C            2.05358040       -0.74113355       -0.82501093
 C            1.53453355       -2.01626423       -1.07720920
 C            1.42989770        1.54925991       -1.22348610
 C            1.79856157        0.29496349       -1.72061101
 C            0.54252704        2.36634999       -1.95285221
 C           -0.01959826        3.57395943        0.08954061
 C           -1.17338591        3.24326936        0.91625009
 C           -0.34292588        3.17903586       -1.25695200
 C           -2.20089152        1.08595513        0.40485548
 C           -2.05073688        2.43652599        0.09922366
 C           -1.74920014        2.81406053       -1.26486283
 C           -2.42020817       -1.20075529       -0.40593015
 C           -2.48470881        0.18016736       -0.63157054
 C           -1.01567553       -3.00382975       -1.29224829
 C           -2.10878204       -2.05684239       -1.46455420
 C            1.12098719       -2.34956175       -2.35817836
 C           -0.19460256       -2.93887508       -2.48795252
 C            1.60467067       -0.01217857       -3.06426301
 C            1.28133826       -1.37957643       -3.42344287
 C            0.12218937        1.96940078       -3.21800264
 C            0.76454605        0.84823598       -3.86545929
 C           -2.18550502        1.99032810       -2.28676378
 C           -2.64973061        0.65499622       -1.93815680
 C           -1.31046269        1.84602415       -3.43806678
 C           -2.05727459       -1.55252631       -2.82634906
 C           -0.92211284       -2.18129258       -3.48934524
 C            0.04682677       -1.36001424       -4.19372994
 C           -0.27700919        0.02507400       -4.46528823
 C           -2.35242157       -0.21660155       -3.06520981
 C           -1.55850059        0.54356440       -4.02118038
