58
Modified xyz file
 C            1.13711862       -0.04660596        4.14493848
 C            2.44618117       -0.36470911        3.62158062
 C            2.32119998       -1.63070137        2.90448119
 C            0.31853725       -1.23042132        3.96047483
 C            0.91732761       -1.97322037        2.87125337
 C           -1.03685858       -0.76837456        3.80090633
 C            0.39753878        1.05067899        3.54463743
 C           -0.99303203        0.68536914        3.67375233
 C            0.85018562        1.60713759        2.34625414
 C            3.05953024        0.58339794        2.71504844
 C            2.21714531        1.57254121        2.06115964
 C            3.01922723       -1.48786475        1.65066926
 C            3.68030469       -0.19501008        1.66600906
 C            2.39786735       -1.87282553        0.46887951
 C            0.25863202       -2.03238986        1.63857115
 C            1.00191186       -2.07614887        0.44859878
 C           -1.79158470       -1.24010536        2.66197287
 C           -1.13197377       -1.84983785        1.58799974
 C           -1.90761063        1.03353441        2.60725480
 C           -2.69936776       -0.15529669        2.36965053
 C           -0.05664415        1.91084115        1.31869470
 C           -1.44076156        1.73301839        1.49748345
 C            0.43372987        2.31025016        0.07112588
 C            2.66428907        1.66527115        0.67977398
 C            3.62790174        0.59510259        0.44996231
 C            1.73202239        1.95947758       -0.31058222
 C            3.03338059       -1.46068585       -0.69595962
 C            3.54772480       -0.09998196       -0.74582505
 C            2.42176408       -1.74552452       -1.96976250
 C            0.32637952       -2.18528897       -0.77692370
 C            1.04295089       -2.16786051       -1.97687444
 C           -1.79716351       -1.88024654        0.35730543
 C           -1.06658415       -2.06988056       -0.82375788
 C           -3.39558966       -0.22579103        1.18407362
 C           -3.08602631       -1.33294472        0.30499385
 C           -2.29242490        1.81013428        0.38961701
 C           -3.38365501        0.94001435        0.32148627
 C           -0.45144498        2.78910781       -0.88640371
 C           -1.85872838        2.46343176       -0.76077019
 C           -0.09059122        2.67499766       -2.28547285
 C            1.99167376        1.57030139       -1.63154508
 C            2.89286356        0.53612507       -1.86933072
 C            2.50358663       -0.53291422       -2.76950073
 C            1.07437838        1.88596291       -2.63041621
 C            0.44408063       -1.56613393       -3.15411612
 C            1.25381923       -0.40512438       -3.49644658
 C            0.65231048        0.84661765       -3.56299166
 C           -1.69406844       -1.96329147       -2.07120588
 C           -0.93527131       -1.47280192       -3.20577456
 C           -3.68807289       -0.98527625       -0.96606623
 C           -3.84637767        0.46444965       -0.97080562
 C           -3.00670624       -1.36259841       -2.17764466
 C           -2.34127890        2.04351139       -2.07307720
 C           -1.23040655        2.13135979       -3.00413170
 C           -0.79104645        0.93467160       -3.70442598
 C           -1.55797216       -0.22397130       -3.62551417
 C           -3.22425307        0.97597497       -2.17418303
 C           -2.87006837       -0.16945234       -2.99910074
