58
Modified xyz file
 C            1.42187575        0.05204767        4.40722723
 C            0.61887803       -1.15832377        4.36796808
 C            1.43786336       -2.20596089        3.78797345
 C            2.60498198       -0.17960852        3.59706099
 C            2.70282380       -1.60733745        3.38184910
 C            2.54000521        0.71109688        2.44474221
 C            0.65764497        1.10661740        3.76993554
 C            1.44090767        1.63133271        2.66517999
 C           -0.65344933       -0.83207361        3.74517868
 C           -0.66682213        0.59450015        3.46645064
 C           -1.19996857       -1.70083591        2.81079429
 C            0.92307668       -2.96306201        2.65859276
 C           -0.38159462       -2.75726995        2.22309957
 C            3.00406514       -2.07857670        2.04841665
 C            1.98323037       -3.04637136        1.67524790
 C            2.74843973        0.21946214        1.15448773
 C            3.09594639       -1.11995247        0.95940033
 C            2.23740063        0.93623438        0.06636548
 C            0.74407640        2.09377945        1.55819081
 C            1.32655930        1.97664056        0.29638579
 C           -1.27218563        1.05867606        2.30145032
 C           -0.64431444        2.10791075        1.63312421
 C           -2.03906861       -1.15934957        1.75524105
 C           -2.12099093        0.21789099        1.56912002
 C           -0.68524775       -2.80784732        0.79838133
 C           -1.87510083       -2.00132670        0.58790641
 C            1.66883578       -2.82044374        0.27374220
 C            2.58169382       -1.80166842       -0.21039061
 C            0.34040901       -2.76485162       -0.14976298
 C            2.28762535        0.34604518       -1.19731720
 C            2.16434252       -1.03877656       -1.28444604
 C            1.91076246        1.10108539       -2.30190449
 C            0.66546766        2.57103684       -0.78554037
 C            1.06026764        2.25784073       -2.08693448
 C           -1.33607997        2.72820962        0.61050068
 C           -0.58687848        3.14468827       -0.55963971
 C           -2.63155778        0.69108633        0.35509271
 C           -2.51580966        2.05853198        0.11230006
 C           -2.07550327       -1.43029438       -0.65692022
 C           -2.72538650       -0.19790728       -0.72882473
 C            0.07703456       -2.18613099       -1.39625468
 C            1.13116536       -1.54936767       -2.05836521
 C           -1.23407240       -1.81046678       -1.69901743
 C            1.41160501        0.39725105       -3.47443464
 C            0.90240285       -0.94952604       -3.28932895
 C            0.10393947        2.32295165       -3.18882680
 C            0.35944857        1.19755531       -4.07371719
 C           -1.54752583        3.25695956       -1.64471982
 C           -2.76999737        2.59207046       -1.21090907
 C           -1.20217997        2.74020912       -2.95264875
 C           -3.13376634        0.25637695       -1.98317302
 C           -3.17554969        1.68052890       -2.25539375
 C           -2.32599942        1.93119610       -3.40723919
 C           -1.52970110       -1.37410332       -2.98656302
 C           -0.43108572       -1.00287202       -3.85675501
 C           -0.72722896        0.30104828       -4.42840365
 C           -2.58343334       -0.38882928       -3.16378810
 C           -2.08227683        0.65227350       -4.05018715
