58
Modified xyz file
 C            1.61033621        0.00000000        3.86631854
 C            0.82729604       -1.17155433        3.51570782
 C            1.56948305       -1.93900198        2.53285745
 C            2.79917846        0.00000000        3.03582851
 C            2.83072639       -1.25217010        2.29750551
 C            2.83072639        1.25217010        2.29750551
 C            0.82729604        1.17155433        3.51570782
 C            1.56948305        1.93900198        2.53285745
 C           -0.50771671       -0.72653704        3.16583544
 C           -0.50771671        0.72653704        3.16583544
 C           -1.17138273       -1.37616858        2.13242808
 C            0.87040843       -2.48022191        1.45608613
 C           -0.52947816       -2.42894730        1.47277464
 C            1.54170836       -2.72157036        0.25027325
 C            3.37034321       -1.25636977        1.01920569
 C            2.70801462       -2.01490800       -0.02757285
 C            3.37034321        1.25636977        1.01920569
 C            3.81646512       -0.00000000        0.43569721
 C            2.70801462        2.01490800       -0.02757285
 C            0.87040843        2.48022191        1.45608613
 C            1.54170836        2.72157036        0.25027325
 C           -1.17138273        1.37616858        2.13242808
 C           -0.52947816        2.42894730        1.47277464
 C           -2.20420504       -0.69892890        1.48379223
 C           -2.20420504        0.69892890        1.48379223
 C           -2.99194937       -1.39073713        0.56761821
 C           -1.24395743       -3.17124473        0.53853760
 C           -2.55504258       -2.70198931        0.12496128
 C            0.81324188       -3.17433408       -0.84549126
 C           -0.54925424       -3.62350516       -0.64729657
 C            0.84714819       -2.37559157       -2.06194390
 C            2.76126640       -1.23722359       -1.25588772
 C            3.44642330       -0.00000000       -0.97109302
 C            2.76126640        1.23722359       -1.25588772
 C            1.63580790       -1.22501218       -2.07414061
 C            1.63580790        1.22501218       -2.07414061
 C            1.07240376        0.00000000       -2.47579823
 C            0.81324188        3.17433408       -0.84549126
 C            0.84714819        2.37559157       -2.06194390
 C           -1.24395743        3.17124473        0.53853760
 C           -0.54925424        3.62350516       -0.64729657
 C           -2.99194937        1.39073713        0.56761821
 C           -2.55504258        2.70198931        0.12496128
 C           -3.51780341       -0.69357116       -0.59300086
 C           -3.51780341        0.69357116       -0.59300086
 C           -2.60094254       -2.71738629       -1.33008609
 C           -1.32718267       -3.21894015       -1.80723665
 C           -0.48960776       -2.36033328       -2.62794322
 C           -3.05348210       -1.40978357       -1.77062999
 C           -0.13920585       -0.00000000       -3.17021507
 C           -0.99873507       -1.16978790       -3.12615849
 C           -2.33750516       -0.72700586       -2.75056410
 C           -0.48960776        2.36033328       -2.62794322
 C           -1.32718267        3.21894015       -1.80723665
 C           -2.60094254        2.71738629       -1.33008609
 C           -3.05348210        1.40978357       -1.77062999
 C           -0.99873507        1.16978790       -3.12615849
 C           -2.33750516        0.72700586       -2.75056410
