58
Modified xyz file
 C            1.54663238        0.11615099        4.16513674
 C            0.76708709       -1.10790066        4.19765728
 C            1.52432294       -2.12934055        3.49920844
 C            2.64802318       -0.08678825        3.23782136
 C            2.68116443       -1.48711153        2.88935083
 C            2.51138689        0.88389969        2.17066349
 C            0.70131594        1.16528678        3.62151336
 C            1.38436426        1.73986898        2.48508455
 C           -0.57512162       -0.79455446        3.73987124
 C           -0.62208948        0.62166154        3.40349758
 C           -1.24133571       -1.69675549        2.92008730
 C            0.86414243       -2.91409368        2.46832339
 C           -0.50828938       -2.78213027        2.27499922
 C            2.69032553       -1.84822127        1.48529526
 C            1.74765257       -2.93681138        1.31483106
 C            2.67595128        0.49926300        0.83992050
 C            2.75804911       -0.86288912        0.49852669
 C            2.26871752        1.41027385       -0.13723284
 C            0.62441316        2.19187575        1.41744610
 C            1.26392748        2.32736847        0.19194652
 C           -1.32272739        1.02260655        2.26663749
 C           -0.76203301        1.99435851        1.42225404
 C           -2.20356146       -1.18619832        1.96131325
 C           -2.32665552        0.18788762        1.77364713
 C           -1.06793226       -2.97096127        0.94373554
 C           -2.17133035       -2.04156704        0.78665210
 C            1.21840099       -3.15216654        0.04995840
 C           -0.22728631       -3.20911395       -0.13184724
 C            2.51492598       -1.24718743       -0.82355078
 C            1.75905604       -2.39758306       -1.06804554
 C            2.52145158        1.10135454       -1.46874573
 C            2.63702034       -0.29686330       -1.83190261
 C            1.80504725        1.79009354       -2.53018071
 C            0.59648169        3.03080558       -0.80032603
 C            0.89904088        2.78687670       -2.19988782
 C           -1.50423052        2.46431771        0.33237587
 C           -0.84137748        3.18256472       -0.66962009
 C           -3.06337406        0.61244834        0.67636771
 C           -2.75371736        1.89601753        0.08081118
 C           -2.44125981       -1.45932705       -0.45010642
 C           -3.24144199       -0.32267311       -0.42369010
 C           -0.53698137       -2.60554034       -1.41842830
 C            0.72788546       -2.37820304       -2.09346715
 C           -1.54919400       -1.64912195       -1.51972509
 C            1.91091180       -0.49288957       -3.07524585
 C            1.42845617        0.80089880       -3.52536704
 C            0.79328255       -1.41830033       -3.08835344
 C           -1.54139115       -0.76474288       -2.61097198
 C            0.02652285        0.65563078       -3.87815696
 C           -0.40169212       -0.65621387       -3.41120203
 C           -0.34711881        2.89055407       -2.94637767
 C           -1.39327427        3.27356817       -2.01224903
 C           -0.82193987        1.74198400       -3.70512553
 C           -3.29190051        1.85265542       -1.27051889
 C           -3.42540971        0.44944242       -1.63066068
 C           -2.53832582        0.19924757       -2.74236953
 C           -2.57811176        2.51282227       -2.34235247
 C           -2.19685666        1.49346580       -3.30922607
