58
Modified xyz file
 C            1.29404868       -0.11914856        3.91955886
 C            2.52340550       -0.28824217        3.16953158
 C            2.46882512       -1.58113299        2.50872586
 C            0.44995903       -1.27164512        3.66032975
 C            1.21220453       -2.21784795        2.86295387
 C           -0.82411245       -0.79139273        3.14730686
 C            0.50376652        1.07308818        3.68333423
 C           -0.80489669        0.65686553        3.18916427
 C            1.11636444        2.17103276        3.09473478
 C            2.87403588        0.71044100        2.17302703
 C            2.26964924        1.95945390        2.22182965
 C            2.78003485       -1.38241667        1.10210677
 C            2.99012179        0.03706011        0.88948947
 C            2.06702260       -2.09609548        0.14378988
 C            0.54325552       -2.93663093        1.88363028
 C            1.14241456       -3.05459589        0.56555889
 C           -1.38514847       -1.42699996        2.04989499
 C           -0.86355149       -2.65867153        1.65406699
 C           -2.16387136       -0.69274193        1.15464033
 C           -1.41446946        1.38752350        2.16812748
 C           -2.05836617        0.71110051        1.11507472
 C            0.26484030        3.14967112        2.44979701
 C           -1.05887462        2.73003446        2.02704976
 C            1.99758023        2.65012864        0.97431377
 C            0.95978809        3.61900916        1.26398006
 C            2.45500497        0.61815861       -0.25664252
 C            1.94432251        1.92426105       -0.21818727
 C            1.95925967       -1.57262268       -1.14693085
 C            2.17826788       -0.19992503       -1.34989214
 C            1.29868093       -2.33622266       -2.10996018
 C            0.07542144       -3.46661901       -0.33524265
 C           -1.18702015       -3.18743325        0.33890032
 C            0.20735103       -3.19329651       -1.68909509
 C           -2.81727973       -1.38173774        0.13481640
 C           -2.23398853       -2.61417907       -0.36843458
 C           -3.33689017       -0.65124228       -0.99649277
 C           -2.51465422        1.42946348       -0.00863747
 C           -3.00339889        0.74654346       -1.11320314
 C           -1.32295754        3.41233676        0.78191008
 C           -0.04522024        3.87335945        0.25590857
 C           -1.98632087        2.68301001       -0.27242275
 C            1.18969474        2.41536930       -1.29619453
 C            0.11621842        3.26746609       -1.05044561
 C           -1.20396059        2.85112673       -1.48523810
 C            1.82305636        0.41216016       -2.54591715
 C            1.15398904        1.69362631       -2.48422624
 C            0.92451744       -1.75271402       -3.38207567
 C            1.19328302       -0.35168794       -3.60506266
 C           -0.96239507       -2.81489616       -2.46719785
 C           -2.15349529       -2.50799998       -1.81715581
 C           -2.89776759       -1.32296684       -2.21005756
 C           -0.50309270       -1.97096741       -3.56140121
 C           -2.34838778        0.95650001       -2.39722908
 C           -1.29671148        1.87602297       -2.47682264
 C           -0.12821758        1.53341238       -3.15830124
 C           -0.06617090        0.30258769       -3.92680662
 C           -2.26871743       -0.33355859       -3.07099903
 C           -1.12644689       -0.67518229       -3.78328009
