58
Modified xyz file
 C            1.30313408        0.01416993        3.69628079
 C            2.51639968       -0.27917612        2.97159492
 C            2.47066759       -1.67670309        2.57638418
 C            0.47105020       -1.17979194        3.68430783
 C            1.13708509       -2.17588626        2.86401192
 C           -0.88331045       -0.77967996        3.34744013
 C            0.48570769        1.11979066        3.24639184
 C           -0.89405111        0.66394974        3.19209139
 C            0.94133686        1.97978578        2.24643866
 C            2.82012902        0.50175692        1.78959432
 C            2.06275425        1.63012180        1.47134703
 C            2.96927099       -1.77465437        1.21591160
 C            3.18170134       -0.42272730        0.72394719
 C            2.39387794       -2.70851264        0.37189507
 C            0.43041356       -2.82101037        1.85087321
 C            1.14210590       -3.33880170        0.76920528
 C           -1.60925150       -1.55549564        2.46262824
 C           -0.95390584       -2.64669224        1.75284977
 C           -2.51950547       -0.90638041        1.53790995
 C           -1.74859998        1.27351513        2.27441788
 C           -2.58724169        0.48369121        1.46603790
 C            0.01157298        2.89250973        1.75003898
 C           -1.39951792        2.56297338        1.87123999
 C            0.20488635        3.51385689        0.45201398
 C            2.21177383        2.14671246        0.18565852
 C            1.23351217        3.06984580       -0.35827461
 C            2.85301172       -0.09159728       -0.59184307
 C            2.63076154        1.25352636       -0.88396950
 C            2.29013792       -2.40408046       -1.04148766
 C            2.41383931       -1.08504506       -1.47923096
 C            0.43873948       -3.71437871       -0.44439395
 C            1.21350162       -3.22174221       -1.57086777
 C           -1.63124396       -2.80274442        0.47097342
 C           -2.52666374       -1.67296834        0.30109029
 C           -0.93402038       -3.28454896       -0.62332819
 C           -2.58404662       -0.99238004       -0.91447745
 C           -3.19968788        1.02791120        0.33606117
 C           -3.14750736        0.28491763       -0.91544878
 C           -2.10362618        3.21194295        0.78677678
 C           -1.10502412        3.73482185       -0.13379335
 C           -3.05133263        2.43502929        0.02421502
 C           -2.83300465        1.22544855       -1.97909802
 C           -1.38944047        3.19294562       -1.45066657
 C           -2.68465511        2.53911516       -1.37795401
 C            0.94964473        2.66392408       -1.72890316
 C            1.92038852        1.63753135       -2.09018153
 C           -0.37140158        2.58320515       -2.18130633
 C            1.83956959       -0.73086103       -2.70405758
 C            1.58391854        0.66543723       -3.01624030
 C            0.29612174       -2.62154226       -2.51741514
 C           -1.01956714       -2.57391283       -1.88830494
 C           -1.79376353       -1.41418942       -1.99374719
 C            0.73089582       -1.51750124       -3.23427496
 C           -1.93193396        0.84677210       -2.95900807
 C           -0.71868776        1.63238324       -3.14044871
 C            0.29767978        0.74653441       -3.67977403
 C           -1.55727014       -0.54962014       -3.06304084
 C           -0.26732861       -0.59150119       -3.72809057
