58
Modified xyz file
 C            1.10124157        0.34344921        4.06689735
 C            2.32546530        0.10495593        3.33295698
 C            2.36439606       -1.31121923        3.02485823
 C            0.27562564       -0.85346845        3.94325539
 C            1.00803266       -1.81272205        3.14768497
 C           -1.03515189       -0.43956820        3.49629752
 C            0.28566353        1.47630170        3.68564564
 C           -1.08429614        1.00724515        3.60861497
 C            0.56827494        2.16075571        2.43517453
 C            2.55201839        0.81682220        2.08567012
 C            1.59222752        1.70636971        1.59970055
 C            3.02785699       -1.46088645        1.74545031
 C            3.16607091       -0.12571579        1.16798259
 C            2.60720009       -2.49487806        0.92315985
 C            0.40923073       -2.38142803        2.02517640
 C            1.24522420       -2.98899874        1.08365948
 C           -1.60313959       -1.03543427        2.37255300
 C           -0.90135400       -2.02587853        1.66544604
 C           -2.66222430       -0.36545272        1.75690056
 C           -1.74080394        1.75140077        2.55039734
 C           -0.71504064        2.51313462        1.85070307
 C           -2.69393721        1.09032208        1.79244860
 C           -0.80133380        2.64934795        0.46966189
 C            1.48035793        1.90440338        0.22088861
 C            0.37544129        2.60570628       -0.27643262
 C            2.97604897        0.05130116       -0.20017577
 C            2.31883829        1.19649459       -0.65333788
 C            2.86469586       -2.37912585       -0.49649736
 C            3.07111048       -1.05421070       -1.04746848
 C            0.73792745       -3.34093904       -0.23247092
 C            1.74766729       -2.97702027       -1.20938085
 C           -1.45986435       -2.56601043        0.50515828
 C           -0.59271850       -3.10071958       -0.52894479
 C           -3.14354236       -0.78840889        0.45258442
 C           -2.55224324       -1.87890854       -0.16498070
 C           -2.93535506        1.54448124        0.43723570
 C           -2.02414818        2.40867771       -0.16469153
 C           -3.43968656        0.40968215       -0.31858651
 C           -2.12933080        2.62010220       -1.53702043
 C            0.33636733        2.98269905       -1.61275864
 C           -0.95244827        3.03927654       -2.27704331
 C            2.18996017        1.37550064       -2.02855928
 C            1.27065870        2.37654657       -2.53559134
 C            2.39306938       -1.02794574       -2.33194410
 C            1.38832874       -2.07770335       -2.29470925
 C            2.04349821        0.19861728       -2.86698533
 C           -0.93577441       -2.42846863       -1.77410201
 C           -2.24560087       -1.82957604       -1.58865254
 C            0.04840933       -1.74543287       -2.49274760
 C           -3.27652033        0.40366878       -1.69849335
 C           -2.82108535        1.62571899       -2.34223745
 C           -2.58666533       -0.71027833       -2.33529479
 C           -0.86895395        2.22652913       -3.48222747
 C            0.49337562        1.75089114       -3.59464558
 C            0.75303204        0.32410030       -3.51522178
 C           -0.27195623       -0.55791210       -3.16016201
 C           -1.93732459        1.24941902       -3.43109822
 C           -1.60681573       -0.15561031       -3.25370045
