58
Modified xyz file
 C            1.46189138       -0.27631063        4.42227414
 C            0.57723551       -1.42643458        4.37142264
 C            1.06781427       -2.32515243        3.34034161
 C            2.53623527       -0.50392293        3.47315859
 C            2.32949759       -1.79907778        2.85342605
 C            2.62031755        0.66482930        2.61619266
 C            0.71411288        0.88517015        3.96547258
 C            1.46148328        1.50337525        2.89579972
 C           -0.72573521       -0.95677353        3.94530676
 C           -0.63996506        0.46994258        3.68791441
 C           -0.01140633       -2.55128722        2.38709371
 C           -1.16772469       -1.80504929        2.85204464
 C            0.27861046       -2.56081672        1.01939668
 C            2.60870023       -1.92374579        1.50280089
 C            1.61209239       -2.52537482        0.62768239
 C            3.00851567        0.50549098        1.28826179
 C            3.16577347       -0.78613459        0.78233674
 C            2.69877593        1.53765265        0.40867213
 C            0.77590815        2.05676926        1.81775195
 C            1.53595384        2.36450085        0.69847277
 C           -1.26688646        0.93674238        2.53898452
 C           -0.59767386        1.80594431        1.66089932
 C           -1.98403399       -1.23269601        1.89153641
 C           -2.26210388        0.12858805        2.00855014
 C           -0.72224163       -2.19712075        0.10361408
 C           -1.95495696       -1.77646858        0.61223264
 C           -0.39970345       -1.95505053       -1.24785535
 C            1.94198266       -2.11553149       -0.71575663
 C            2.92408426       -1.04402002       -0.62749393
 C            0.94232566       -2.00262827       -1.66821073
 C            2.73196882        1.31349169       -1.02782063
 C            2.82312895        0.01168805       -1.52711348
 C            0.88177866        2.66704115       -0.55687342
 C            1.78789717        2.25849051       -1.61443339
 C           -1.24065137        2.14636188        0.45685285
 C           -0.48064090        2.42779645       -0.69163254
 C           -3.10730829        0.69498174        1.07245226
 C           -2.59572920        1.83457562        0.33187767
 C           -2.96388277       -1.38764193       -0.25493167
 C           -3.71327818       -0.19755291        0.10631990
 C           -1.41029103       -1.56939031       -2.15047167
 C           -2.69655537       -1.32393640       -1.67707099
 C           -1.07294434       -1.02874457       -3.39568065
 C            1.31502803       -1.37594316       -2.85113100
 C            2.26232609       -0.27255531       -2.77001533
 C            0.30659307       -1.03465772       -3.82301458
 C            1.27147716        2.00417097       -2.87206459
 C            1.72654521        0.81500089       -3.56344823
 C            0.61850696        0.28852887       -4.33909013
 C           -1.02001965        2.27340017       -1.98079879
 C           -1.64709124        0.25356582       -3.79263092
 C           -0.16525403        2.10626058       -3.07364189
 C           -0.53339014        1.13063652       -4.08413245
 C           -3.20803551        1.80818286       -0.98073875
 C           -3.96503772        0.57125384       -1.09292544
 C           -3.41314605       -0.17395118       -2.20589026
 C           -2.35299168        1.89707379       -2.14229130
 C           -2.66788155        0.76646228       -3.01198387
