58
Modified xyz file
 C            1.28227195       -0.13027543        4.24130091
 C            2.52106284       -0.44309522        3.55867058
 C            2.30733967       -1.67361512        2.80609572
 C            0.41808455       -1.29056377        4.11584627
 C            0.92297325       -2.06813164        3.00221402
 C           -0.94099074       -0.79910264        4.05572880
 C            0.50363340        1.01002378        3.78772923
 C           -0.87641603        0.65646836        4.04083261
 C            0.85898047        1.65161200        2.59465462
 C            3.05182194        0.53653286        2.63581439
 C            2.19321404        1.62771528        2.20092909
 C            2.78337660       -1.45329383        1.44636604
 C            3.46163511       -0.17972452        1.44125375
 C            1.93905182       -1.75812271        0.37943588
 C            0.13002889       -2.26182320        1.87395333
 C            0.76789715       -2.46370942        0.65072648
 C           -1.77386949       -1.19278282        2.93731318
 C           -1.23015472       -1.91646214        1.87863352
 C           -1.88835506        1.12477915        3.12472883
 C           -2.58890143       -0.04497743        2.61669343
 C           -0.12317857        2.07187208        1.67927289
 C           -1.47813745        1.90041351        1.97222812
 C            0.22922843        2.41582594        0.36206889
 C            2.52298052        1.87235569        0.81709684
 C            3.22148429        0.69603224        0.32126642
 C            1.58004185        2.44138034       -0.02488584
 C            2.05263584       -1.05354343       -0.83454589
 C            2.76890166        0.15491057       -0.87559851
 C            1.21800458       -1.41820324       -1.90593737
 C            0.01488714       -2.93284002       -0.41058512
 C            0.40333868       -2.54204730       -1.74966080
 C           -1.91960412       -1.93396843        0.66353591
 C           -1.42432986       -2.77573253       -0.32766919
 C           -2.88298448        0.20428410        1.21951376
 C           -2.37464184        1.52409825        0.89918542
 C           -2.67064777       -0.80640397        0.28690952
 C           -0.78002985        2.45015782       -0.61942446
 C           -1.96517736        1.74903422       -0.40284032
 C           -0.47316262        2.83248893       -1.92473350
 C            1.88187936        2.35064141       -1.37795743
 C            2.43902649        1.08991856       -1.84451582
 C            0.90625631        2.78732996       -2.34566531
 C            1.01017531       -0.53569710       -2.98164082
 C            1.67914867        0.68405751       -3.00272779
 C            0.98797535        1.87519470       -3.47229416
 C           -0.04289932       -0.73497561       -3.88309643
 C           -0.77566925       -2.71520844       -2.57311371
 C           -1.92421973       -2.64933116       -1.68223311
 C           -1.01194884       -1.78383790       -3.64981887
 C           -2.71924020       -0.44137296       -1.06085342
 C           -2.42867251        0.88951897       -1.39800231
 C           -2.64857178       -1.44740216       -2.02160294
 C           -2.28611633       -1.12749064       -3.38754427
 C           -1.26793858        2.29412262       -3.02133526
 C           -0.34891207        1.73983378       -4.00844174
 C           -0.81584148        0.40870062       -4.33788484
 C           -2.25693303        1.27174698       -2.72601814
 C           -2.13979164        0.26268451       -3.75937110
