58
Modified xyz file
 C            1.48877110        0.00622039        4.12619674
 C            0.71104792       -1.18762489        3.85461737
 C            1.57432990       -2.09708680        3.13722521
 C            2.65278678       -0.02404115        3.25335790
 C            2.72442815       -1.33914646        2.66165712
 C            2.56517967        1.12031474        2.37176012
 C            0.68402690        1.15090392        3.74238067
 C            1.47480309        1.96065304        2.84212485
 C           -0.53713538       -0.78311530        3.22446829
 C           -0.58982401        0.67019714        3.25455744
 C           -0.97885200       -1.45640763        2.07984107
 C            1.02169642       -2.78041302        1.99148213
 C           -0.33107213       -2.63885025        1.69387458
 C            2.74641687       -1.45239032        1.21182342
 C            1.96172238       -2.62674994        0.89614884
 C            2.72502658        0.96149094        0.99306942
 C            2.58904817       -0.31557443        0.42104522
 C            2.45628245        2.08321172        0.21579378
 C            0.81168452        2.72043461        1.88783255
 C            1.56548082        3.08338754        0.77753903
 C           -1.15069435        1.33007848        2.17315990
 C           -0.56743526        2.52177914        1.72204437
 C           -1.76802198       -0.76122516        1.14926001
 C           -1.97839313        0.60994694        1.31661228
 C           -2.23342215       -1.41144020       -0.00288078
 C           -0.74663085       -3.27262682        0.53226421
 C           -1.88165155       -2.74626039       -0.19520360
 C            1.44630472       -2.77566390       -0.38286735
 C            0.27767136       -3.52820047       -0.46397319
 C            2.02085572       -0.46557755       -0.85231758
 C            1.63679908       -1.73768438       -1.30650893
 C            2.07906645        1.91792515       -1.17224660
 C            1.71707180        0.65904028       -1.62391239
 C            0.92968577        3.78193295       -0.31857740
 C            1.24713480        3.05373899       -1.53799167
 C           -1.25435340        3.27719100        0.77157270
 C           -0.50501561        3.96472100       -0.26806932
 C           -2.74260972        1.30368382        0.39219267
 C           -2.43286200        2.70313188        0.14409914
 C           -2.78491721       -0.67124411       -1.06335449
 C           -3.02694570        0.68701832       -0.88654904
 C           -2.57185305       -1.08815171       -2.37956136
 C           -1.77237107       -3.28324425       -1.54243030
 C           -0.38424774       -3.68096622       -1.73816904
 C           -2.14465997       -2.44298088       -2.65601451
 C            1.08089180       -1.85665095       -2.58534508
 C            0.13726514       -2.93102266       -2.85737649
 C           -1.00258081       -2.36669604       -3.55464453
 C            0.76127016        0.56061222       -2.63093545
 C           -1.83723169       -0.20100357       -3.26817022
 C            0.58847433       -0.66359535       -3.25614459
 C           -0.72287095       -0.96224319       -3.78803452
 C            0.00151297        2.80556746       -2.24435768
 C           -1.04147842        3.54385468       -1.54996361
 C           -2.30185522        2.88011524       -1.29449067
 C           -2.52805490        1.58981576       -1.90906372
 C           -0.26376688        1.51378266       -2.69911486
 C           -1.59592866        1.08712795       -2.80973209
