58
Modified xyz file
 C            1.52677940        0.06066923        4.62135251
 C            0.64506797       -1.07649785        4.44192564
 C            1.34746842       -2.06879912        3.64936179
 C            2.71331100       -0.17113961        3.81388953
 C            2.57515355       -1.46115378        3.16645056
 C            2.90283284        0.99760518        2.98599261
 C            0.85013563        1.23316481        4.08588881
 C            1.77496936        1.89737887        3.20597308
 C           -0.62206850       -0.57551765        3.94488599
 C           -0.42584135        0.80916973        3.54474222
 C           -1.36696078       -1.38594943        3.10806859
 C            0.65984941       -2.64689066        2.50704956
 C           -0.71346382       -2.49335853        2.40870395
 C            2.56080534       -1.53491196        1.71191145
 C            1.46638994       -2.40409279        1.32131377
 C            3.03221184        0.83680956        1.54857320
 C            2.82015398       -0.40492674        0.93875901
 C            1.30652859        2.31231226        1.89778448
 C            2.37302584        1.99202045        0.97613532
 C           -0.82401605        1.21176106        2.26028399
 C           -0.00533675        2.04966541        1.48651613
 C           -2.21878684       -0.74374176        2.13160404
 C           -1.86819333        0.51868997        1.64577499
 C           -1.32260494       -2.56966013        1.09347164
 C           -2.53577514       -1.78181508        1.18015158
 C            0.83886150       -2.17307633        0.09627680
 C           -0.52657391       -2.43916947       -0.04902488
 C            2.40791398       -0.40039016       -0.39572177
 C            1.47140460       -1.34947952       -0.83324535
 C            2.03853446        1.93331777       -0.35849211
 C            2.46377621        0.81756611       -1.06589593
 C           -0.27692945        2.20857679        0.11875929
 C            0.81102216        2.47009298       -0.72144511
 C           -2.28248275        0.86868163        0.35846020
 C           -1.45416832        1.68075080       -0.43229957
 C           -3.11902109       -1.39220262       -0.00146670
 C           -3.21873295        0.03210642       -0.25081362
 C           -1.16363017       -2.11879744       -1.25381576
 C           -2.54807272       -1.91637104       -1.21760183
 C            0.91904754       -1.21136700       -2.10890282
 C           -0.41537091       -1.59706715       -2.32108907
 C            2.22945116        0.82210804       -2.43085154
 C            1.55007214       -0.32989193       -2.99046962
 C            0.60180406        2.64834232       -2.07906212
 C            1.54547808        1.98556167       -2.96237377
 C           -1.69178769        1.81956481       -1.81405183
 C           -0.72089258        2.41598010       -2.62047015
 C           -3.48262189        0.15526743       -1.66724063
 C           -3.19329160       -1.14889317       -2.25843999
 C           -2.74037570        1.12922525       -2.42736034
 C           -1.06759120       -1.27494669       -3.52023309
 C           -2.47012535       -0.91824349       -3.48265145
 C           -2.52790760        0.51044271       -3.72636786
 C            0.87706205        0.11939232       -4.19528492
 C            0.84236914        1.57283543       -4.15814297
 C           -0.54435577        1.96268189       -3.99617507
 C           -0.47057700       -0.33099269       -4.44359560
 C           -1.33392404        0.84760276       -4.46747524
