58
Modified xyz file
 C            1.11087856       -0.04000258        4.02636643
 C            2.31186779       -0.34363744        3.28422565
 C            2.20182805       -1.71368957        2.81225499
 C            0.25657565       -1.21924542        3.98684260
 C            0.82597447       -2.13135724        3.01584623
 C           -1.10293786       -0.76962874        3.80002459
 C            0.30489365        1.08996956        3.61098383
 C           -1.08211048        0.68257750        3.74923602
 C            0.67005544        1.85054013        2.49716195
 C            2.64670130        0.47871563        2.14124649
 C            1.87271097        1.59255289        1.81492989
 C            2.74838168       -1.76642955        1.46757354
 C            3.08314903       -0.40702574        1.07251271
 C            2.13129560       -2.59132688        0.54402784
 C            0.08154428       -2.54270713        1.90723017
 C            0.78115638       -3.06502927        0.81747761
 C           -1.83129246       -1.22959237        2.63696375
 C           -1.26245404       -2.15451117        1.76110467
 C           -2.03128047        1.10607571        2.73464121
 C           -2.54466423       -0.08883467        2.08290698
 C           -0.31723465        2.63779742        1.90108145
 C           -1.70543238        2.19916787        1.95158632
 C           -0.09477296        3.24396123        0.60029607
 C            2.10835973        2.17772153        0.57185280
 C            1.11821766        3.04739262       -0.03783463
 C            2.89861360        0.00308710       -0.24854372
 C            2.69510548        1.36295246       -0.48124173
 C            2.18175413       -2.22874143       -0.85739534
 C            2.53777793       -0.93136025       -1.22840724
 C            0.11885952       -3.26612963       -0.45919306
 C            1.05303296       -2.87766818       -1.50552166
 C           -1.91745745       -2.35351031        0.54679112
 C           -1.22375982       -2.95020388       -0.58067064
 C           -2.81904226       -0.07633388        0.71470049
 C           -2.77137877       -1.29271571        0.03428711
 C           -2.22541280        2.26896358        0.60149523
 C           -1.33596244        3.13823050       -0.15245945
 C           -2.74792790        1.12490939       -0.00325566
 C           -1.30141100        3.02690387       -1.53616234
 C            1.15527702        2.83294189       -1.47718343
 C            2.16230100        1.81953963       -1.75300121
 C           -0.02409721        2.86017695       -2.21494061
 C            2.24206528       -0.50253473       -2.52229220
 C            1.96211850        0.90094803       -2.77233932
 C            0.57791348       -2.36064157       -2.70350500
 C            1.32390828       -1.28599638       -3.33343708
 C           -1.71402096       -2.31841300       -1.79705066
 C           -2.70314761       -1.32149977       -1.41631095
 C           -0.84015888       -2.06431589       -2.84955114
 C           -2.90946358        1.11713053       -1.38864702
 C           -2.26490056        2.15252655       -2.18065015
 C           -2.79742523       -0.13176092       -2.12240924
 C           -0.21544341        1.92300300       -3.31176831
 C            0.76767584        0.98244404       -3.60090029
 C            0.37298540       -0.37411795       -3.94603181
 C           -0.96694176       -0.83420748       -3.61683181
 C           -1.61134717        1.51447273       -3.31060736
 C           -1.94150030        0.09846642       -3.27750464
