58
Modified xyz file
 C            1.61672051       -0.16773149        4.33406769
 C            0.73862358       -1.32006933        4.37668389
 C            1.22586341       -2.27081647        3.39790937
 C            2.57657635       -0.37488092        3.25917823
 C            2.26227374       -1.62299560        2.60918144
 C            2.58165260        0.81729431        2.45283187
 C            0.81096068        0.98241574        3.96902486
 C            1.55001837        1.70680520        2.96625971
 C           -0.57814080       -0.89496688        3.93086515
 C           -0.50810399        0.51832023        3.60587126
 C            0.07005448       -2.77989802        2.69157092
 C           -1.00619402       -1.81836390        2.89355570
 C            0.27771957       -3.23635647        1.40438134
 C            2.15313482       -1.66953469        1.21704994
 C            1.45078089       -2.74715220        0.68901135
 C            2.69205224        0.70665550        1.06834764
 C            2.29041931       -0.49374131        0.44817904
 C            2.53577791        1.90309690        0.37931511
 C            0.84825294        2.43173880        2.01735563
 C            1.62776492        2.87617771        0.96500792
 C           -1.03760063        0.94340943        2.39132338
 C           -0.47880577        2.05347250        1.73459124
 C           -1.66406378       -1.30738321        1.77344734
 C           -1.86402835        0.07256946        1.68056517
 C           -0.81526754       -3.13228043        0.46536701
 C           -1.72494791       -2.08804798        0.61265472
 C            1.12547518       -2.77044523       -0.71963550
 C           -0.21025722       -3.34189172       -0.82818299
 C            1.87072778       -0.48758412       -0.90340670
 C            1.45468728       -1.67936628       -1.51548930
 C            2.27573241        1.88770138       -1.04001814
 C            1.81527561        0.71560561       -1.62654689
 C            0.99300669        3.59690631       -0.10493819
 C            1.60717234        3.14297002       -1.33873359
 C           -1.10132398        2.53000619        0.56640358
 C           -0.43567796        3.44399778       -0.25399824
 C           -2.59280930        0.57408004        0.61654887
 C           -2.23372998        1.87357509        0.07731639
 C           -2.35849244       -1.58632061       -0.52957344
 C           -2.90866157       -0.30439849       -0.49569008
 C           -0.95767760       -3.03416388       -1.94707155
 C           -2.14926809       -2.21772394       -1.76033171
 C            0.91620660       -1.64699614       -2.80125650
 C           -0.24653534       -2.47761796       -3.07732973
 C            1.08994865        0.79315679       -2.82295004
 C            0.71050197       -0.37563995       -3.46498203
 C            0.57319957        3.15131140       -2.34713182
 C           -0.69104068        3.44837558       -1.68370921
 C            0.36545397        1.94922220       -3.12102647
 C           -2.51494364        1.85144360       -1.35374713
 C           -2.95817261        0.51034580       -1.70291053
 C           -1.69216512        2.54787792       -2.22835004
 C           -1.06579202        1.83939306       -3.33315274
 C           -2.35973175       -1.47633777       -2.99346560
 C           -1.20075735       -1.69976046       -3.84229741
 C           -0.59872189       -0.40936005       -4.10260569
 C           -2.58756485       -0.04463681       -2.92249454
 C           -1.56555820        0.60853772       -3.73283998
