58
Modified xyz file
 C            1.27463203       -0.08100560        3.84062433
 C            2.53757976       -0.24811571        3.14682687
 C            2.47067737       -1.49032888        2.39351864
 C            0.43403252       -1.22280800        3.51907514
 C            1.13890592       -2.04399190        2.55724053
 C           -0.88152806       -0.72948320        3.16186596
 C            0.49959807        1.12436944        3.60856614
 C           -0.85072493        0.72484565        3.23172881
 C            1.09478911        2.20741278        2.97495253
 C            2.98986715        0.79599197        2.24365689
 C            2.33535320        2.02527607        2.22796155
 C            2.94794008       -1.22821167        1.04596877
 C            3.36788303        0.16229513        0.98951757
 C            2.24948072       -1.77291053       -0.02974435
 C            0.45733930       -2.46366897        1.42263267
 C            1.17087039       -2.62232241        0.23570098
 C           -1.56596248       -1.33169679        2.11186500
 C           -0.93411743       -2.33576836        1.36939308
 C           -2.61756574       -0.62224372        1.54145365
 C           -1.57552758        1.46746563        2.29456201
 C           -2.57521585        0.83086429        1.56361286
 C            0.25438389        3.11611608        2.22227793
 C           -1.07474736        2.68119907        1.82785784
 C            2.21947701        2.76611945        0.98122495
 C            0.97306515        3.50413747        1.01870907
 C            3.22907559        0.85690969       -0.20457302
 C            2.61594663        2.17717511       -0.21276659
 C            2.37053308       -1.18154665       -1.29240582
 C            2.76952449        0.14754187       -1.38667280
 C            1.66450801       -1.71633731       -2.36438619
 C            0.57849527       -3.32069605       -0.80803023
 C            0.89500831       -2.92874618       -2.16542264
 C           -1.61687998       -2.92954144        0.30971012
 C           -0.84899578       -3.57533895       -0.74179357
 C           -3.17077503       -1.03906438        0.26396691
 C           -2.71190381       -2.21142354       -0.32137595
 C           -2.90003496        1.30230153        0.22496456
 C           -3.36231307        0.15426626       -0.54742256
 C           -1.25166836        3.03682974        0.42831211
 C            0.05534444        3.39527337       -0.10081857
 C           -2.11372377        2.29104470       -0.36956426
 C            1.75736565        2.26706041       -1.38878809
 C            1.96852744        1.06427455       -2.18155241
 C            0.47799770        2.81846622       -1.29643411
 C            0.88067157       -0.81843091       -3.20120839
 C            0.92739550        0.55712329       -2.95471662
 C           -0.35230790       -2.80009747       -2.90120497
 C           -1.43241806       -3.20411238       -2.02118040
 C           -2.51703114       -2.27302031       -1.76205120
 C           -0.38722152       -1.47544317       -3.49409484
 C           -3.13880444        0.10560315       -1.91757822
 C           -2.62732167       -1.11327833       -2.52533103
 C           -1.56457156       -0.73998063       -3.45343495
 C           -1.86173468        2.24739886       -1.73902882
 C           -0.49509973        2.41957554       -2.20741401
 C           -0.21195179        1.33808185       -3.13837697
 C           -2.48816267        1.22861118       -2.56186823
 C           -1.47795907        0.70598307       -3.46850768
