58
Modified xyz file
 C            1.12236112       -0.23128431        4.19547747
 C            2.31099050       -0.46320163        3.39558104
 C            2.19600361       -1.78148161        2.79376075
 C            0.28258662       -1.41539310        4.10267846
 C            0.90377042       -2.33037001        3.15985762
 C           -1.08124660       -0.97811508        3.86772457
 C            0.29317761        0.92749771        3.90973139
 C           -1.08029325        0.47381842        3.79599257
 C            0.74743742        1.89824288        3.02506335
 C            2.64645222        0.47766614        2.34162844
 C            1.97965507        1.69097005        2.26880903
 C            2.53754270       -1.66315063        1.38487384
 C            2.86733593       -0.27618188        1.12008468
 C            1.79156012       -2.35385048        0.43419789
 C            0.13234405       -2.92937066        2.17119919
 C            0.70337197       -3.12813572        0.84829510
 C           -1.79203787       -1.47906784        2.70479469
 C           -1.26045813       -2.53389789        1.97899945
 C           -1.85762032        0.86625799        2.63093263
 C           -2.34093202       -0.34079167        1.98905144
 C           -0.19986200        2.53801268        2.12561996
 C           -1.40963208        1.90621953        1.82155261
 C            1.79836980        2.31468558        0.96884921
 C            0.58989169        3.11291449        1.04974876
 C            2.49266507        0.26141896       -0.10739088
 C            2.04776727        1.58782407       -0.19608530
 C            1.84388881       -1.92696772       -0.89520969
 C            2.25579230       -0.61170184       -1.16641900
 C            1.07966011       -2.62796295       -1.82785033
 C           -0.42126024       -3.31054507       -0.05373691
 C           -1.54030132       -2.61716318        0.55543176
 C           -0.20911096       -3.13858380       -1.40906386
 C           -2.40936441       -0.35906094        0.59941942
 C           -2.09996215       -1.52672919       -0.11190270
 C           -1.90749491        2.00153005        0.51949733
 C           -2.46598553        0.85810286       -0.07532593
 C           -0.05139612        3.44391607       -0.12953236
 C           -1.43588368        3.04547709       -0.27611133
 C            1.52796419        2.06383495       -1.40687513
 C            0.59106893        3.09904798       -1.38459008
 C            2.13218072       -0.07213143       -2.44223635
 C            1.68214165        1.30174796       -2.56609262
 C            0.90570156       -2.10894800       -3.17019509
 C            1.51388729       -0.84234994       -3.50305086
 C           -1.19331326       -2.39322041       -2.17236849
 C           -2.02187796       -1.48501087       -1.51010630
 C           -0.52827703       -1.99219571       -3.40039357
 C           -2.78747022        0.84019119       -1.42826888
 C           -2.48732804       -0.35804809       -2.18954838
 C           -1.72949410        3.07447635       -1.69544897
 C           -0.45282254        3.14209213       -2.39432968
 C           -2.49024310        1.98670069       -2.26373955
 C            0.66464393        1.34307177       -3.61240220
 C            0.49439624       -0.00989332       -4.11689199
 C           -0.78876670       -0.67333574       -3.94183253
 C           -1.85875736        0.05649237       -3.44048239
 C           -0.46094442        2.13806203       -3.43944507
 C           -1.77247255        1.50786869       -3.43192623
