58
Modified xyz file
 C            1.27848240       -0.05767485        3.66095041
 C            2.41625124       -0.27459183        2.78031305
 C            2.19302771       -1.53201412        2.08677840
 C            0.42852363       -1.23409604        3.59291604
 C            1.08277121       -2.20766244        2.74621212
 C           -0.91087510       -0.80314133        3.24114679
 C            0.44156425        1.11482753        3.45886364
 C           -0.89219086        0.64817980        3.12158636
 C            0.96993648        2.20089151        2.77883948
 C            2.92486674        0.80422268        2.07294156
 C            2.33873223        2.11604168        2.29566093
 C            3.14179920        0.66472866        0.64223890
 C            2.30642167       -1.59427892        0.69551826
 C            2.60841908       -0.43696923       -0.02820479
 C            1.78382560       -2.70101806        0.03579880
 C            0.28946986       -3.06115185        1.99659553
 C            0.81174374       -3.52912918        0.72805598
 C           -1.65041315       -1.54555576        2.31982718
 C           -1.11965502       -2.72964703        1.79594029
 C           -2.68907543       -0.90805350        1.64366529
 C           -1.60713201        1.24152819        2.08469969
 C           -2.71099533        0.54665488        1.60537933
 C            0.17686003        2.83714504        1.73931385
 C           -0.99827047        2.22975764        1.29338969
 C            2.41835948        2.85510987        1.05040756
 C            3.03684436        1.99089528        0.05738805
 C            1.10305971        3.41079264        0.77609577
 C            2.63678962        2.11202848       -1.26353576
 C            2.22142083       -0.31856089       -1.37106895
 C            2.34534815        0.90930649       -2.02495253
 C            1.34660446       -2.56915147       -1.34042017
 C            1.53092259       -1.35841230       -2.00297475
 C           -0.31123512       -3.73968122       -0.16464856
 C           -1.48688261       -3.15115150        0.44973957
 C            0.08065161       -3.28279871       -1.48033503
 C           -3.09871138       -1.38674140        0.33269107
 C           -2.32277743       -2.34239413       -0.31649957
 C           -3.32239135        0.95173497        0.36153352
 C           -3.61011046       -0.24762075       -0.40839408
 C           -1.47644479        2.52051033        0.00499483
 C           -2.60030613        1.86823314       -0.48897272
 C            0.70527432        3.53855835       -0.54540341
 C            1.61105306        3.08982763       -1.59119085
 C           -0.63641480        3.12925156       -0.92375868
 C            1.38069037        1.27039470       -3.05141728
 C            0.81240354        2.54929135       -2.67631200
 C           -0.58274452        2.59382002       -2.27679769
 C            0.75755433       -1.08483009       -3.13137083
 C            0.52193375        0.29206751       -3.52115390
 C           -0.89919493       -2.75051460       -2.30337110
 C           -2.13973329       -2.27070026       -1.70384635
 C           -0.49702855       -1.79155393       -3.31249355
 C           -3.15133205       -0.03124539       -1.76550347
 C           -2.54489339        1.29385512       -1.82511966
 C           -1.41566001        1.52768515       -2.61390018
 C           -0.91681486        0.51388235       -3.43726561
 C           -2.56165148       -1.08603965       -2.44351327
 C           -1.54867074       -0.79484213       -3.43705722
