58
Modified xyz file
 C            1.28612710        0.04764615        4.05754770
 C            2.45699561       -0.13297071        3.22497572
 C            2.45724712       -1.50897145        2.75492026
 C            0.45707721       -1.14042167        3.92021632
 C            1.17391994       -2.09441530        3.08889573
 C           -0.87244899       -0.70985816        3.51490594
 C            0.44363307        1.20070364        3.81943175
 C           -0.92365223        0.72857006        3.66069092
 C            0.72494583        2.06002413        2.68255764
 C            2.64361105        0.72460514        2.06367081
 C            1.69562039        1.69200497        1.74526469
 C            2.88308137       -1.49424695        1.36742374
 C            3.16698708       -0.11210803        1.00521979
 C            2.24718821       -2.31144836        0.43300072
 C            0.47506625       -2.78183582        2.10577660
 C            1.07144386       -2.97888204        0.78889785
 C           -1.45954468       -1.28993085        2.39599230
 C           -0.93171324       -2.48083584        1.89888307
 C           -2.32930644       -0.54028485        1.59770181
 C           -1.52972706        1.50954100        2.59808882
 C           -0.56566975        2.52652504        2.21373277
 C           -2.24861163        0.86159793        1.59596985
 C           -0.64690615        3.05742954        0.93894839
 C            1.54450919        2.08553761        0.41275018
 C            0.52568639        2.98249447        0.08708739
 C            2.98444426        0.26423833       -0.31887370
 C            2.24094464        1.41927920       -0.60716502
 C            2.48334377       -2.04582418       -0.91412852
 C            3.05331684       -0.75770135       -1.26151632
 C            1.43395192       -2.30333994       -1.88713743
 C           -0.02079027       -3.07103861       -0.17349119
 C           -1.26993955       -2.91038676        0.55311098
 C            0.13674946       -2.49822488       -1.43360282
 C           -2.99581257       -1.19207739        0.56245059
 C           -2.34524852       -2.31845347       -0.08476009
 C           -3.63255566       -0.41086855       -0.47984446
 C           -2.54418366        1.57707063        0.43105159
 C           -1.78331116        2.70100462        0.10815874
 C           -3.35662327        1.00832584       -0.54364349
 C            0.06228973        3.09102635       -1.28601932
 C           -1.38575244        2.92807526       -1.27288970
 C            2.02478404        1.78940843       -1.93861035
 C            0.81676961        2.51405792       -2.29607284
 C            2.71787770       -0.49487235       -2.64448274
 C            1.67311556       -1.43776825       -3.02106639
 C            2.27047023        0.83228692       -3.00107049
 C            0.15469363        1.77783908       -3.36592430
 C            0.56710353       -0.67840898       -3.55797794
 C            1.03390247        0.68588722       -3.74833701
 C           -0.93691875       -1.81837051       -2.03157655
 C           -2.21464635       -1.97448525       -1.48702307
 C           -3.24747360       -0.99328133       -1.75747197
 C           -0.71633719       -0.87684541       -3.05567941
 C           -3.12592836        1.34010361       -1.94003711
 C           -2.01262919        2.21142077       -2.28457297
 C           -1.20759453        1.51770885       -3.27718518
 C           -2.95351778        0.09053454       -2.66522103
 C           -1.65005408        0.13321003       -3.29194127
