58
Modified xyz file
 C            1.55263549       -0.14078038        4.24254923
 C            0.72489623       -1.32511626        4.37873934
 C            1.24246312       -2.32646199        3.46813206
 C            2.51268362       -0.38379138        3.17852940
 C            2.29685189       -1.71926274        2.66944896
 C            2.42353566        0.71833867        2.25041203
 C            0.69696011        0.94558106        3.80479614
 C            1.35332216        1.59833786        2.68467582
 C           -0.61604112       -0.99160654        3.92608618
 C           -0.63417814        0.41409247        3.58067454
 C            0.10824235       -2.89646537        2.76671764
 C           -0.99304592       -1.95249194        2.90663837
 C            0.34808466       -3.42846018        1.51200286
 C            2.27322377       -1.93088405        1.29099111
 C            1.58737248       -3.05896860        0.84537614
 C            2.52248016        0.46724478        0.89177616
 C            2.47671106       -0.85216748        0.40619290
 C            2.15848754        1.49988765        0.04051217
 C            0.54887058        2.16164594        1.69560646
 C            1.09485661        2.33063206        0.41943258
 C           -1.28021889        0.80874712        2.41791611
 C           -0.82799392        1.96628875        1.79607010
 C           -1.64184384       -1.49654300        1.75772085
 C           -1.96077159       -0.13458864        1.63925617
 C           -0.68931987       -3.31984975        0.50654258
 C           -1.64162991       -2.30857501        0.62079564
 C            1.38275945       -3.25747936       -0.57160685
 C           -0.03311595       -3.52671155       -0.77152679
 C            2.39835122       -1.06219163       -0.98552741
 C            1.75753382       -2.19744423       -1.47708773
 C            2.49592861        1.36570209       -1.29213254
 C            2.49262892        0.02954274       -1.84984384
 C            1.91406352        2.26345242       -2.26817242
 C            0.32045656        2.97340608       -0.55455539
 C            0.79826056        3.08905631       -1.86106072
 C           -1.64415825        2.52902329        0.83183993
 C           -1.02327786        3.22651361       -0.27654683
 C           -2.65241398        0.32272016        0.51064907
 C           -2.69407547        1.69757596        0.27111732
 C           -2.30059571       -1.87618153       -0.52495663
 C           -2.91114149       -0.55944420       -0.53766957
 C           -0.47746098       -2.75207083       -1.91435448
 C            0.67303390       -2.03211226       -2.43418966
 C           -1.69166153       -2.09498844       -1.83363034
 C            1.61037300        0.06930850       -3.00549563
 C            1.47276991        1.45702798       -3.39620785
 C            0.50752727       -0.78333856       -3.03085382
 C           -0.13141671        3.10172700       -2.98016659
 C            0.16962910        1.93729029       -3.79648311
 C           -2.00374931        3.24822342       -1.34877479
 C           -2.96867942        2.19600869       -1.06835621
 C           -1.55630296        3.09006434       -2.71614985
 C           -2.87695606       -0.08996175       -1.91717778
 C           -1.88021931       -0.88773353       -2.60989538
 C           -0.78501766       -0.25608943       -3.20024321
 C           -0.96281326        1.03763098       -3.69434441
 C           -2.95109730        1.26909322       -2.18318741
 C           -2.08579691        1.82759714       -3.21100063
