58
Modified xyz file
 C            1.49815521       -0.18245895        4.63649103
 C            0.59311105       -1.30461536        4.81364544
 C            1.11491607       -2.42838681        4.05266418
 C            2.53336259       -0.59428526        3.70691861
 C            2.28901370       -1.96980550        3.33446966
 C            2.57634726        0.38859211        2.64598790
 C            0.75653866        0.90248058        4.00864807
 C            1.50261831        1.34258972        2.84934589
 C           -0.67901507       -0.93310123        4.22602323
 C           -0.60123663        0.45920605        3.80009816
 C            0.11856186       -2.80129469        3.06054041
 C           -1.02490435       -1.93042243        3.22239677
 C            2.08674058       -2.26375253        1.92776791
 C            0.76223511       -2.83174690        1.75979733
 C            2.79227215       -0.02649411        1.34281791
 C            2.50262956       -1.34963207        0.97106396
 C            2.61070499        0.93867427        0.36629968
 C            0.80519375        1.76901415        1.71576441
 C            1.49614716        1.78119614        0.50406177
 C           -1.22510135        0.78680331        2.60250269
 C           -0.58921939        1.63965992        1.68296866
 C           -1.65523988       -1.47242719        2.07498982
 C           -2.10012618       -0.15902973        2.09399757
 C            0.02396621       -2.43665654        0.64056391
 C           -1.29287623       -2.00568879        0.83149569
 C            2.04443761       -1.55524192       -0.32855034
 C            0.71899214       -1.98551006       -0.48921692
 C            3.00195621        0.57273360       -0.90696833
 C            2.62106467       -0.76472223       -1.31146401
 C            2.70112269        1.46809082       -1.99561525
 C            0.84100828        2.24276361       -0.64083396
 C            1.58843113        2.36993584       -1.81093446
 C           -1.27946632        1.93235830        0.49336390
 C           -0.56137661        2.18020346       -0.69452192
 C           -2.92059894        0.23431537        1.06439741
 C           -2.59858869        1.48543051        0.41532417
 C           -2.02890789       -1.57661879       -0.27473428
 C           -3.08932998       -0.70600457       -0.01593822
 C           -0.01362645       -1.58637722       -1.61640382
 C           -1.41372057       -1.53857604       -1.53271134
 C            1.98019700       -0.65320314       -2.60115880
 C            2.38285446        0.63680023       -3.13745518
 C            0.65652550       -1.06085199       -2.73456700
 C            0.92201673        2.46004835       -3.08986244
 C            1.43189188        1.37958348       -3.93255653
 C           -1.23689747        2.26889243       -1.93450994
 C           -0.51860763        2.39133022       -3.12520867
 C           -3.28031481        1.44840889       -0.85910330
 C           -3.67474835        0.06101268       -1.09165131
 C           -2.57524704        1.88786221       -2.03488485
 C           -2.17183062       -1.15643317       -2.64252906
 C           -3.30642316       -0.27522790       -2.44553404
 C           -2.97215011        0.97519754       -3.09538512
 C           -0.06049119       -0.61702894       -3.84668372
 C            0.28551989        0.66252064       -4.44790733
 C           -0.85654967        1.52660219       -4.24625539
 C           -1.50471519       -0.68493605       -3.83803079
 C           -2.00722264        0.65822352       -4.12322982
