58
Modified xyz file
 C            1.20101933        0.03587207        4.06853048
 C            2.39793212       -0.04439651        3.25678452
 C            2.49730415       -1.41571852        2.81230060
 C            0.37442611       -1.11991145        3.73789780
 C            1.17037409       -1.99701455        2.91766304
 C           -0.87053900       -0.62495514        3.19568421
 C            0.36722430        1.20521352        3.92353419
 C           -0.98344670        0.73534442        3.66592277
 C            0.67142021        2.14456103        2.86034030
 C            2.50287013        0.79577717        2.07206751
 C            1.52840415        1.75821495        1.82637869
 C            3.11051092       -1.40215322        1.49808094
 C            2.95644701       -0.04750832        0.97911741
 C            2.78633563       -2.45047080        0.65404904
 C            0.62408724       -2.53347591        1.75973396
 C            1.53821291       -3.15312494        0.91992679
 C           -1.19426846       -0.90616642        1.86597193
 C           -0.51619434       -1.93060404        1.18617643
 C           -2.01768426       -0.01884241        1.15289053
 C           -1.59037371        1.69822360        2.78237267
 C           -0.60228147        2.73593440        2.51959097
 C           -2.33599346        1.24046839        1.70561800
 C           -0.70601586        3.41363633        1.31692077
 C            1.18837894        2.07003560        0.50597060
 C            0.26430329        3.09111266        0.27645173
 C            2.41826654        0.13122390       -0.29666829
 C            1.51962468        1.18428531       -0.53214505
 C            2.78927492       -2.20421451       -0.76984280
 C            2.53707197       -0.90756194       -1.22571335
 C            1.07344739       -3.69942384       -0.32975688
 C            2.04905031       -3.31625906       -1.33615931
 C           -0.86884007       -2.22599832       -0.14133211
 C           -0.21647382       -3.26450751       -0.81064192
 C           -2.36587491       -0.31944836       -0.17366640
 C           -1.69076983       -1.34293792       -0.85967111
 C           -3.20789769        0.54232433       -0.88102286
 C           -2.84244248        2.23824754        0.88405902
 C           -2.01055875        3.41185884        0.68321582
 C           -3.41409495        1.88618269       -0.39065700
 C           -0.41947916        3.16345548       -1.00361817
 C           -1.79961956        3.54574282       -0.74000573
 C           -2.86623263        2.80552581       -1.38217100
 C            0.94434681        1.34545036       -1.80298603
 C           -0.14807871        2.20227334       -1.97247066
 C            2.07398308       -0.71930554       -2.52429973
 C            1.24720530        0.43838764       -2.82019111
 C            1.32571602       -3.10600804       -2.56749224
 C           -0.09446050       -3.20878514       -2.24971179
 C            1.52221657       -1.84877119       -3.25936945
 C           -1.69839805       -1.36472331       -2.27110574
 C            0.18478447        0.00642323       -3.72174090
 C           -0.76907925       -2.14367631       -2.94686486
 C            0.22274109       -1.44321111       -3.74398036
 C           -3.02787446        0.67452208       -2.30734421
 C           -2.53334163        2.01979336       -2.54638635
 C           -1.13515684        1.87201407       -2.90486443
 C           -2.10038312       -0.22260677       -2.94849698
 C           -1.06112601        0.58967616       -3.56687392
