58
Modified xyz file
 C            1.24644579        0.02171502        4.11703146
 C            2.42805001       -0.11496375        3.29240329
 C            2.41804998       -1.44811238        2.71256493
 C            0.43114239       -1.16818320        3.92937455
 C            1.17778346       -2.09934749        3.09983305
 C           -0.88792707       -0.74048052        3.48865114
 C            0.39388669        1.17488476        3.91794688
 C           -0.95569389        0.69213065        3.66497757
 C            0.71638803        2.13086574        2.87001240
 C            2.65435603        0.83073625        2.21265609
 C            1.85230541        1.96658647        2.07354845
 C            2.73733140       -1.32447540        1.29689148
 C            3.01272568        0.07035452        1.02312205
 C            2.00564930       -2.05076182        0.37071279
 C            0.48868328       -2.82837492        2.14107480
 C            1.07883569       -2.98982462        0.82513312
 C           -1.42953363       -1.31067923        2.33943064
 C           -0.91627494       -2.53475900        1.91302274
 C           -2.18977558       -0.53127242        1.45358511
 C           -1.51419112        1.48872090        2.59528687
 C           -0.53976136        2.50966418        2.24252173
 C           -2.21948084        0.86748891        1.57300469
 C           -0.52497781        3.00258386        0.93988458
 C            1.90365686        2.64598324        0.86100162
 C            0.70754747        3.31264561        0.36913700
 C            2.69904725        0.60367372       -0.22316522
 C            2.51021166        1.98043559       -0.27921600
 C            1.91430294       -1.58384881       -0.94009228
 C            2.13151665       -0.22007946       -1.21284993
 C            1.26787320       -2.39385034       -1.86879153
 C            0.00456627       -3.41324503       -0.05722504
 C           -1.24744885       -3.04190812        0.59134325
 C            0.15618726       -3.21178774       -1.42072919
 C           -2.76745063       -1.14089320        0.33771067
 C           -2.24153557       -2.40903260       -0.14081634
 C           -3.12594621       -0.34351879       -0.82371160
 C           -2.51986788        1.64872298        0.46179593
 C           -1.62915429        2.74740880        0.12161275
 C           -2.97563448        1.03353921       -0.77083896
 C           -1.51335443        2.79299758       -1.33050591
 C           -2.36020950        1.74470396       -1.88204674
 C            0.83921422        3.41631959       -1.07416385
 C            1.96414976        2.58171516       -1.47270906
 C           -0.28747033        3.06986601       -1.91943577
 C            1.71774164        0.34033609       -2.43832114
 C            1.51269412        1.71433175       -2.53391086
 C            0.21523909        2.20240879       -2.97183262
 C            0.91979739       -1.86422890       -3.16599266
 C            1.10826302       -0.45345367       -3.40698075
 C           -0.99538278       -2.83294010       -2.22053700
 C           -2.13346839       -2.33609594       -1.59023608
 C           -2.72329595       -1.07279738       -2.01670323
 C           -0.48253758       -2.17696826       -3.41028252
 C           -1.95309120        1.04587166       -3.01487619
 C           -0.64566179        1.31222471       -3.60104899
 C           -0.09970503        0.04173641       -4.04758289
 C           -2.20555355       -0.38432592       -3.11105623
 C           -1.12925725       -0.97044309       -3.88961306
