58
Modified xyz file
 C            1.12071338       -0.15861703        4.17475233
 C            2.35899750       -0.39044009        3.45228752
 C            2.29645578       -1.72898199        2.89471514
 C            0.27936927       -1.33497103        4.00330561
 C            0.93174321       -2.20153268        3.04452172
 C           -1.06341387       -0.88517936        3.72402583
 C            0.31764605        1.00747555        3.84968393
 C           -1.06015541        0.56962709        3.75191329
 C            0.79211565        1.94177239        2.93514660
 C            2.73101255        0.51303945        2.37933528
 C            2.04708933        1.71131934        2.22548789
 C            2.86000982       -1.68613106        1.55602375
 C            3.02587421       -0.28475002        1.19785929
 C            2.33444607       -2.54998389        0.60980562
 C            0.25839523       -2.63071549        1.90044948
 C            1.04842582       -3.17165889        0.88960010
 C           -1.69092708       -1.29521894        2.48222226
 C           -1.00181756       -2.09237512        1.57238609
 C           -1.86679134        1.02755605        2.63537486
 C           -2.41888432       -0.14888373        1.97967410
 C           -0.13293360        2.58119262        2.00601538
 C           -1.42859946        2.08871353        1.84465275
 C            1.90443390        2.26783159        0.89316458
 C            0.63782830        2.97782787        0.83685892
 C            2.60786966        0.17077147       -0.05658270
 C            2.30264711        1.52678302       -0.21627967
 C            2.27973611       -2.11428589       -0.76995685
 C            2.24784614       -0.75180433       -1.05151311
 C            0.44739945       -3.50354205       -0.38285680
 C            1.32090687       -2.97577799       -1.42174801
 C           -1.46226068       -2.12687159        0.24978303
 C           -0.88163568       -3.00864031       -0.65686267
 C           -2.69966675       -0.07183116        0.62149721
 C           -2.34408399       -1.13730615       -0.21261290
 C           -2.07662893        2.29417757        0.63147120
 C           -2.85045955        1.19870110        0.07230881
 C            0.01084850        3.10616152       -0.39781222
 C           -1.37189886        2.93273558       -0.47030656
 C            1.91543256        1.99371770       -1.46587145
 C            0.79080833        2.91505861       -1.53730426
 C            1.65601305       -0.30506930       -2.24003014
 C            1.75836587        1.04803781       -2.55102928
 C            0.47242739       -2.40102170       -2.44166878
 C           -0.90492236       -2.68810470       -2.06871279
 C            0.77059906       -1.13978536       -2.95054342
 C           -2.65775199       -1.06406680       -1.57353974
 C           -1.89667499       -1.84377795       -2.53918683
 C           -2.88684878        1.36571825       -1.36849395
 C           -1.99698466        2.47306955       -1.70555737
 C           -2.93489755        0.23410242       -2.17125383
 C            0.15809855        2.73567845       -2.83134506
 C            0.85388720        1.65294350       -3.51017227
 C           -1.26189238        2.45240910       -2.88606566
 C           -0.16995385       -0.58977344       -3.82192650
 C           -1.56231659       -0.96101230       -3.64395288
 C           -2.32451362        0.26416465       -3.48746632
 C           -0.13900337        0.82071164       -4.14652549
 C           -1.45152471        1.37081293       -3.83714504
