58
Modified xyz file
 C            1.55916088       -0.24595368        4.59977320
 C            0.68368064       -1.38780274        4.78927578
 C            1.22082757       -2.48688989        4.00647096
 C            2.54278461       -0.59787881        3.58785931
 C            2.32833176       -1.97620915        3.21488849
 C            2.47497642        0.40614642        2.54439808
 C            0.75757472        0.83848318        4.06146080
 C            1.46684958        1.38033874        2.91937035
 C           -0.61795356       -1.04414615        4.23762434
 C           -0.58856499        0.34869352        3.83602339
 C            0.18925407       -2.90927919        3.07762297
 C           -0.95638649       -2.03239603        3.23380683
 C            2.04731226       -2.27030452        1.82113383
 C            0.78912956       -2.99092405        1.75762296
 C            2.52532475        0.02498079        1.20491546
 C            2.28598857       -1.30736099        0.84198183
 C            2.21413890        1.00372401        0.26520787
 C            0.71568161        1.93020631        1.88781053
 C            1.31477657        2.01069935        0.63341673
 C           -1.20264515        0.70684867        2.64017444
 C           -0.67139726        1.78404765        1.93389951
 C           -1.58179661       -1.60531942        2.06938589
 C           -1.92856516       -0.25640357        1.92980395
 C           -0.02901198       -2.74234359        0.66072895
 C           -1.33815484       -2.33428469        0.91066942
 C            1.74680086       -1.54058715       -0.42286983
 C            0.57310289       -2.30124047       -0.51816024
 C            2.32632152        0.67820376       -1.08148376
 C            2.05358188       -0.64546426       -1.44451490
 C            2.14881012        1.71132449       -1.99646984
 C            0.65525059        2.72374074       -0.36672380
 C            1.23757088        2.77842601       -1.63046249
 C           -1.41619604        2.28906447        0.87889199
 C           -0.72239219        2.90900287       -0.23984152
 C           -2.58682138        0.13262502        0.75557334
 C           -2.47537462        1.45989063        0.32905379
 C           -2.16149458       -2.08866591       -0.17374398
 C           -2.93404815       -0.86022668       -0.16225149
 C           -0.22202019       -2.19765201       -1.66352801
 C           -1.60793170       -2.22265156       -1.50860755
 C            1.58488755       -0.94551329       -2.71995859
 C            0.33407262       -1.66797706       -2.82854294
 C            1.95716431        1.41247846       -3.40139505
 C            1.61840309        0.05728476       -3.76699132
 C            0.40003558        3.05561782       -2.78340165
 C            0.91137737        2.28751510       -3.90522216
 C           -1.58785717        2.78523985       -1.40518434
 C           -2.61740906        1.80861063       -1.08143058
 C           -1.02385513        2.80750893       -2.67518308
 C           -3.21304021       -0.51647971       -1.54671775
 C           -2.44665711       -1.42612568       -2.38591286
 C           -2.95874585        0.83266658       -2.00773479
 C           -0.50532105       -0.94659019       -3.77807980
 C            0.31038813        0.07841218       -4.40446998
 C           -0.16763235        1.44850906       -4.39607556
 C           -1.36636234        1.76763451       -3.63669786
 C           -1.81871469       -0.65075093       -3.43533244
 C           -2.22721003        0.73949684       -3.26185684
