58
Modified xyz file
 C            1.21656517       -0.22694469        4.22539495
 C            2.33630648       -0.49179146        3.34018560
 C            2.06554724       -1.74151711        2.64247937
 C            0.34443103       -1.38697859        4.17500424
 C            0.73485214       -2.17128861        3.01218518
 C           -1.02033586       -0.90850380        4.27441025
 C            0.39257457        0.95008229        3.99741666
 C           -0.99761336        0.53402227        4.07715258
 C            0.75757504        1.86513196        3.01622573
 C            2.69440441        0.49628486        2.33949621
 C            2.01141594        1.70323922        2.29112765
 C            2.36135615       -1.53735917        1.23838272
 C            2.94178210       -0.21499760        1.09780237
 C            1.45251186       -1.96159919        0.27198249
 C           -0.19491704       -2.42229013        2.00448725
 C            0.22324851       -2.50826773        0.66840526
 C           -2.00466836       -1.45411284        3.36360987
 C           -1.55879842       -2.32162448        2.28866090
 C           -1.89217541        0.84441698        2.97041176
 C           -2.68740879       -0.33683357        2.73011775
 C           -0.24169794        2.30947775        2.05559906
 C           -1.40317145        1.56784278        1.88392366
 C            1.84798843        2.35296433        1.00466410
 C            0.46741021        2.79567935        0.89207023
 C            2.76377854        0.43964873       -0.11540666
 C            2.44151045        1.80388103       -0.12572233
 C            1.60244755       -1.46103773       -1.02692982
 C            2.42059151       -0.33838085       -1.22097515
 C            0.75292150       -1.91056993       -2.04552094
 C           -0.72089481       -2.82765638       -0.30485816
 C           -0.44070424       -2.53452871       -1.70144511
 C           -2.48529319       -2.08870081        1.20063460
 C           -2.94426400       -0.72089464        1.35953693
 C           -2.11705932       -2.49164072       -0.06973245
 C           -1.84987579        1.28970586        0.58336226
 C           -2.67050373        0.17651657        0.33400054
 C           -0.13398829        2.73099984       -0.35961328
 C           -1.33588358        2.02286763       -0.49894946
 C            2.07806723        2.37891372       -1.33966286
 C            0.71225311        2.86994841       -1.46017254
 C            2.53956136        0.23579689       -2.47918563
 C            2.39606956        1.67185514       -2.56412521
 C            0.87333829       -1.39869854       -3.33596983
 C            1.82645377       -0.34242985       -3.59725175
 C           -0.33651190       -1.08247563       -4.07809661
 C           -1.68197672       -2.06158550       -2.29886713
 C           -2.52615759       -1.66370680       -1.18979278
 C           -2.76967985       -0.30694904       -0.96808379
 C           -1.61802727       -1.23896313       -3.41353396
 C           -1.86305774        1.80367207       -1.77315760
 C           -2.61219464        0.58525736       -2.01862069
 C           -2.23266302        0.07567824       -3.32759613
 C            0.23649227        2.55699086       -2.79468638
 C            1.34323879        1.95160222       -3.52365339
 C            1.12579856        0.73472874       -4.28433529
 C           -0.23319051        0.29472868       -4.53082558
 C           -1.05555260        2.07337487       -2.95344057
 C           -1.33222638        1.03701856       -3.93851912
