58
Modified xyz file
 C            1.54362442       -0.00576568        4.19312237
 C            0.76689445       -1.23142572        4.14678251
 C            1.62380154       -2.25532281        3.58923346
 C            2.68981065       -0.18438442        3.31694542
 C            2.76444088       -1.58671645        2.97645012
 C            2.57656081        0.78344301        2.24267350
 C            0.72636294        1.05481159        3.63211467
 C            1.46760820        1.66409868        2.55010459
 C           -0.49785833       -0.93222031        3.49001298
 C           -0.57562383        0.50803793        3.31865409
 C           -0.97478649       -1.75191964        2.46348445
 C            1.06359616       -3.15305985        2.60185445
 C           -0.28818657       -2.92388785        2.12114924
 C            2.78521417       -1.95917958        1.57512588
 C            1.93061685       -3.11926597        1.43441077
 C            2.73310155        0.38534169        0.91591545
 C            2.72244407       -0.98024274        0.58598601
 C            2.36845457        1.30633908       -0.07133459
 C            0.75262383        2.16879661        1.47375953
 C            1.41575375        2.27947266        0.25719543
 C           -1.22703524        0.99124448        2.19321472
 C           -0.63918275        2.02359608        1.45293362
 C           -1.90585386       -1.22314643        1.56132035
 C           -2.13899965        0.15795986        1.55844604
 C           -2.26763169       -1.98386900        0.44946260
 C           -0.28735666       -3.36208890        0.73733068
 C            1.07646087       -3.20478615        0.26004126
 C           -1.32102357       -2.94460939       -0.08185472
 C            2.29961904       -1.36048912       -0.68757810
 C            1.30947292       -2.34603356       -0.81298708
 C            2.55568521        0.94196080       -1.40251382
 C            2.51227706       -0.46958573       -1.72990940
 C            1.88450542        1.67257784       -2.46454240
 C            0.79175148        3.01961728       -0.73831224
 C            1.07269807        2.74784136       -2.13731825
 C           -1.34684343        2.55446754        0.36875035
 C           -0.63507178        3.25806076       -0.60902002
 C           -2.96900869        0.72706889        0.59870737
 C           -2.61705286        2.04087684        0.08689582
 C           -2.90191758       -1.34291510       -0.68738221
 C           -3.42591885       -0.07288544       -0.52601112
 C           -1.01136979       -2.51386473       -1.43516398
 C            0.30163922       -2.20014363       -1.77358540
 C           -2.08377727       -1.62813366       -1.86067528
 C            1.74332716       -0.62231707       -2.94680286
 C            1.41298591        0.70303791       -3.43949499
 C            0.52419775       -1.39972797       -2.88760772
 C           -1.81308275       -0.61387926       -2.78018740
 C            0.00996909        0.70386174       -3.81732039
 C           -0.56098220       -0.57092759       -3.39827541
 C           -0.15751607        2.96504744       -2.88604868
 C           -1.17101172        3.42360318       -1.95028660
 C           -0.72665336        1.87009973       -3.65763990
 C           -3.18485073        2.14480597       -1.24750940
 C           -3.49773325        0.79579268       -1.68616172
 C           -2.64958732        0.50159227       -2.82756771
 C           -2.41836817        2.77921377       -2.29940353
 C           -2.13121361        1.77012612       -3.30958280
