58
Modified xyz file
 C            1.19980984       -0.07629587        4.08916193
 C            2.46866828       -0.41343339        3.48248445
 C            2.28169554       -1.66218736        2.75033799
 C            0.34758016       -1.24434057        3.96280646
 C            0.88947163       -2.04079108        2.87753902
 C           -1.01007508       -0.75845080        3.84515426
 C            0.44583095        1.04551942        3.55308981
 C           -0.94525205        0.69070422        3.70811766
 C            0.86891913        1.65935049        2.36990688
 C            3.05405421        0.53997683        2.56444095
 C            2.22064628        1.61032563        2.03665385
 C            2.83268044       -1.47827975        1.42397345
 C            3.53735379       -0.21710728        1.42664641
 C            2.05454739       -1.77122564        0.31057777
 C            0.12508962       -2.22540215        1.72491758
 C            0.75283681       -2.26794862        0.46919588
 C           -1.82281144       -1.24657320        2.74980189
 C           -1.26748262       -2.10299062        1.80480978
 C           -1.86680096        1.06645758        2.66273812
 C           -2.60627900       -0.12266876        2.27406053
 C           -0.06853169        2.05946963        1.40060280
 C           -1.44744165        1.92398888        1.65901474
 C            0.37977666        2.52545085        0.14674545
 C            2.61772928        1.79803123        0.65775771
 C            3.38688088        0.62536751        0.26063964
 C            1.70466777        2.31499424       -0.25483361
 C            2.42924300       -1.22625792       -0.91824825
 C            3.05438856        0.03277577       -0.95050697
 C            1.83972785       -1.74823964       -2.06511868
 C            0.00481388       -2.60106883       -0.66662088
 C            0.56034445       -2.42403899       -1.93763219
 C           -2.03056580       -2.36032316        0.67647594
 C           -1.37205623       -2.76885659       -0.54729615
 C           -3.13433534       -0.18450142        0.98447907
 C           -3.07533792       -1.40964022        0.31707774
 C           -2.36042929        2.12159186        0.63502395
 C           -3.20850908        1.00337801        0.24755765
 C           -0.53696845        2.98118846       -0.80102869
 C           -1.95163944        2.81781036       -0.55799519
 C           -0.31599978        2.68205758       -2.20448619
 C            1.98374168        2.10831921       -1.60838077
 C            2.73430992        0.91930184       -1.97068206
 C            0.95183391        2.30552977       -2.61286632
 C            1.80955554       -0.96495749       -3.28718621
 C            2.22009689        0.41898468       -3.22608332
 C            1.08174486        1.24457487       -3.59797098
 C           -0.28498717       -1.98982651       -3.04631436
 C            0.45270339       -0.99974177       -3.80312453
 C           -0.04877393        0.36312868       -3.83355077
 C           -2.23433895       -2.37430995       -1.64759464
 C           -3.23654877       -1.46048334       -1.12409616
 C           -1.63117438       -1.76081935       -2.81189981
 C           -3.26756138        0.97838510       -1.20902654
 C           -2.52729126        2.12387522       -1.70123815
 C           -1.46441736        1.91533096       -2.66654421
 C           -1.27095144        0.65134762       -3.22779832
 C           -3.16223002       -0.22886687       -1.88284616
 C           -2.14195210       -0.39758936       -2.91081925
