58
Modified xyz file
 C            1.37862145       -0.16944540        4.47719718
 C            0.62405756       -1.40435762        4.55869538
 C            1.15108011       -2.30907230        3.55385127
 C            2.36997910       -0.32262198        3.42474434
 C            2.15280859       -1.59233688        2.77613618
 C            2.30259679        0.85767989        2.60616506
 C            0.46681657        0.88194955        4.05637652
 C            1.11797185        1.60746491        2.99931773
 C           -0.74617158       -1.10825057        4.18351125
 C           -0.81173276        0.28400184        3.76001891
 C            0.01818115       -2.88418322        2.85147217
 C           -1.16975291       -2.13229830        3.24572667
 C            0.19472499       -3.21519119        1.51499788
 C            2.07382173       -1.63793486        1.38242564
 C            1.35920107       -2.68744410        0.81918690
 C            2.54770633        0.75080873        1.24341667
 C            2.33928777       -0.48881909        0.60789275
 C            2.27417195        1.90404460        0.52940392
 C            0.35031208        2.14159680        1.97268674
 C            1.09149776        2.65260082        0.92191003
 C           -1.43670602        0.58396914        2.54750668
 C           -0.90006682        1.56140969        1.68294377
 C           -2.09147541       -1.76819698        2.27374587
 C           -2.33212745       -0.35112116        2.04427151
 C           -0.92954435       -3.12428679        0.59667059
 C           -2.05466452       -2.41215429        0.97008125
 C            1.04059656       -2.65364848       -0.58457489
 C           -0.38187076       -2.92186805       -0.73127194
 C            2.14580453       -0.52880264       -0.79381311
 C            1.60174597       -1.68072253       -1.39224438
 C            2.30772036        1.87407401       -0.90888274
 C            2.30547180        0.64723747       -1.55492014
 C            0.42360741        3.06662315       -0.28358415
 C            1.39212793        2.90994967       -1.35489707
 C           -1.48670051        1.77024534        0.41171248
 C           -0.88746688        2.66812060       -0.49525607
 C           -2.81739608       -0.21185378        0.69580371
 C           -2.64588195       -1.48892738        0.02010497
 C           -2.53872137        0.93986675       -0.01812100
 C           -1.08978639       -2.19905624       -1.69308001
 C           -2.23352884       -1.47514418       -1.31349161
 C            1.06785694       -1.60025461       -2.67085039
 C           -0.36463648       -1.80883947       -2.82065028
 C            2.05367165        0.64725640       -2.92767346
 C            1.46128321       -0.51876663       -3.53620935
 C            0.93692932        2.87635331       -2.66242906
 C            1.42179200        1.81546549       -3.52966646
 C           -1.40904615        2.83890497       -1.77847685
 C           -0.49004173        3.02552408       -2.89517360
 C           -2.86015541        0.88587109       -1.36723522
 C           -2.63680038       -0.37072101       -2.06656084
 C           -2.46157275        1.96410430       -2.23430717
 C           -0.86872446       -0.77641388       -3.70552255
 C            0.28404688       -0.09335173       -4.27757526
 C            0.30805817        1.35621763       -4.34457309
 C           -0.87217877        2.10322156       -3.95287300
 C           -1.99723653       -0.06213331       -3.33097278
 C           -2.04956232        1.38365683       -3.50308757
