58
Modified xyz file
 C            1.51379709        0.00107756        4.27977315
 C            0.69866516       -1.17248880        4.01350669
 C            1.47736989       -2.06331124        3.18628961
 C            2.65614528       -0.04707742        3.38295893
 C            2.70253716       -1.36972187        2.81022000
 C            2.56763294        1.08610716        2.48319488
 C            0.72491967        1.16963271        3.93202867
 C            1.41943928        1.88927578        2.88127021
 C           -0.58570681       -0.71544169        3.51791728
 C           -0.62902786        0.72948298        3.67406607
 C           -1.13815910       -1.28139760        2.36699251
 C            0.87968740       -2.57476158        1.96848008
 C           -0.43062396       -2.25301950        1.63544540
 C            2.83929499       -1.48891764        1.37302103
 C            1.87873885       -2.48416012        0.92817372
 C            2.82937371        0.92786112        1.12136056
 C            3.03420993       -0.35618466        0.58160135
 C            2.44547509        1.97730560        0.28918806
 C            0.67251628        2.52130285        1.88748069
 C            1.29951713        2.78681360        0.67375971
 C           -1.38408020        1.46072128        2.77099576
 C           -0.72290950        2.45850094        1.93591516
 C           -2.21444973       -0.62178808        1.76524907
 C           -2.33043917        0.75641646        1.92343382
 C           -2.84596553       -1.21353166        0.67825808
 C           -0.85625248       -2.56460117        0.34561445
 C           -2.19405845       -2.33725936        0.04375221
 C            1.45012416       -2.43658945       -0.39317872
 C            0.10101344       -2.67125199       -0.68022776
 C            2.96145229       -0.54942591       -0.79751525
 C            2.21246050       -1.69374892       -1.29339802
 C            2.41425327        1.80824493       -1.15109359
 C            2.70183895        0.56593863       -1.68999570
 C            0.50984578        3.03670178       -0.52206457
 C            1.29208348        2.57926302       -1.66361945
 C           -1.50317346        2.58248445        0.71135542
 C           -2.56142129        1.58332136        0.75145272
 C           -0.87217550        2.84999185       -0.49746468
 C           -3.35634996       -0.36431363       -0.38848114
 C           -2.97375650        0.97578079       -0.43143135
 C           -2.66198746       -2.40079182       -1.32591331
 C           -3.36567762       -1.15778594       -1.60562229
 C           -0.29124443       -2.69267473       -2.01963835
 C           -1.69421470       -2.61464184       -2.37573908
 C            1.66427097       -1.34486886       -2.59398819
 C            1.92915360        0.06816610       -2.81986776
 C            0.44865064       -1.89365459       -2.98081189
 C            0.63923265        2.16791829       -2.81796318
 C            0.95517289        0.87251613       -3.40304052
 C           -1.54850697        2.54968307       -1.67693961
 C           -2.62001570        1.56399019       -1.64768612
 C           -0.79557574        2.35602551       -2.90345580
 C           -2.81328353       -0.59392728       -2.82106583
 C           -1.84489195       -1.54388859       -3.34856294
 C           -0.51277995       -1.08306517       -3.71340287
 C           -0.28506127        0.27911698       -3.88120448
 C           -2.52605748        0.76384775       -2.86371122
 C           -1.36102620        1.21680223       -3.60567165
