58
Modified xyz file
 C            1.41983261        0.17971612        4.08832802
 C            0.59488135       -0.97833985        3.81350272
 C            1.23502921       -1.76070907        2.76737301
 C            2.60354610        0.07736781        3.25884111
 C            2.44609281       -1.06444759        2.37304468
 C            2.80427012        1.37328110        2.64972401
 C            0.68174524        1.35175966        3.64481534
 C            1.51146498        2.05144583        2.68914646
 C           -0.75046462       -0.49899777        3.57006048
 C           -0.63037971        0.90957032        3.22483801
 C           -1.56781715       -1.29080867        2.78084494
 C            0.42586856       -2.31977704        1.78715607
 C           -0.94739315       -2.36824484        2.02778270
 C            0.88489219       -2.36227435        0.46845128
 C            2.73363810       -0.88933882        1.02005821
 C            1.89447904       -1.47682319        0.05644841
 C            3.50989449        1.40668747        1.46005159
 C            3.56360425        0.17920185        0.67107192
 C            3.19326513        2.47311365        0.53556268
 C            0.94848761        2.50664317        1.49509658
 C            1.81834880        2.94135534        0.49544913
 C           -1.14311314        1.34260672        2.00409103
 C           -0.36400454        2.14395904        1.14947046
 C           -2.48867272       -0.64281609        1.86548551
 C           -2.26228133        0.68014948        1.49553636
 C           -1.84775384       -2.70225219        0.94241637
 C           -2.81826143       -1.61746543        0.83699145
 C            0.10170973       -3.00625504       -0.49171763
 C           -1.31015041       -3.23670005       -0.21534876
 C            0.20573348       -2.58430322       -1.87368264
 C            1.96393979       -1.08576176       -1.29437825
 C            0.91696045       -1.42466494       -2.14987566
 C            3.68462617        0.56158125       -0.71751689
 C            3.55440182        2.00786471       -0.78843827
 C            2.75882145       -0.00884107       -1.66909302
 C            1.38755348        2.91866943       -0.89196537
 C            2.44315647        2.30022658       -1.67121179
 C            2.11814904        1.08071574       -2.38156638
 C           -0.83205832        2.42677161       -0.13895789
 C            0.08315537        2.55024247       -1.18441503
 C           -2.86194055        1.15308419        0.33748892
 C           -2.15892040        2.14561334       -0.45184024
 C           -3.21596209       -1.16467405       -0.41983239
 C           -3.46474686        0.20082984       -0.58530685
 C           -2.04300911       -3.05955814       -1.45352940
 C           -1.07370719       -2.82855333       -2.51018180
 C           -3.02899366       -1.99564541       -1.52941296
 C           -1.61841495       -1.81537827       -3.38692844
 C           -2.92233816       -1.43367210       -2.86526693
 C            0.36438548       -0.41718975       -2.95672220
 C            0.79800123        0.89083128       -2.76281613
 C           -0.14527397        1.84068368       -2.36494871
 C           -0.86323210       -0.59659979       -3.58990672
 C           -2.52098399        1.93406556       -1.84553002
 C           -3.43628442        0.80579309       -1.90531837
 C           -3.06893882       -0.00390248       -3.04790706
 C           -1.45687556        1.69427996       -2.80165912
 C           -1.80796234        0.50588400       -3.56385251
