58
Modified xyz file
 C            0.98971226       -0.05981592        4.22168093
 C            2.26289765       -0.30567874        3.56961098
 C            2.23683049       -1.67402999        3.08759832
 C            0.15524867       -1.23812415        4.01854991
 C            0.85277561       -2.10279775        3.09200668
 C           -1.17147007       -0.78830550        3.67141952
 C            0.20787263        1.09842015        3.83252313
 C           -1.17140035        0.66437317        3.74190176
 C            0.70217491        1.97825721        2.87354615
 C            2.66753191        0.53750133        2.45779080
 C            1.93496391        1.67456045        2.15168902
 C            2.94086210       -1.71284533        1.82426779
 C            3.10566085       -0.33266787        1.37887765
 C            2.51047811       -2.63949858        0.88995463
 C            0.26862246       -2.44931655        1.87078876
 C            1.10017977       -3.02421264        0.91575058
 C           -1.71426005       -1.15638848        2.37588765
 C           -0.91525460       -1.82028186        1.45161988
 C           -1.98276059        1.14219889        2.64154761
 C           -2.48848476       -0.02315835        1.92923228
 C           -0.21255782        2.61066675        1.93195235
 C           -1.56065864        2.23765373        1.89100502
 C            1.73382570        2.02849233        0.75703795
 C            0.51476843        2.80503413        0.68205554
 C            2.81619568       -0.00910231        0.04732594
 C            2.01078077        1.10088528       -0.24374749
 C            2.85206453       -2.38739089       -0.49112106
 C            2.97962265       -1.00458451       -0.91029594
 C            0.64351504       -3.13074234       -0.45520822
 C            1.81273164       -2.98529720       -1.29957547
 C           -1.20183071       -1.68248570        0.08397553
 C           -0.53042111       -2.48982593       -0.84354806
 C           -2.76402785        0.12706536        0.57893990
 C           -2.15761076       -0.73759195       -0.34870143
 C           -2.27373789        2.50000141        0.72640228
 C           -3.07474496        1.41936992        0.18006053
 C           -0.19925308        2.82710298       -0.50473134
 C           -1.56774282        3.05860443       -0.40836671
 C            1.32554707        1.18990648       -1.46667319
 C            0.31041329        2.15500416       -1.62422803
 C            2.31019146       -0.88664193       -2.18885603
 C            1.67830518       -2.17105835       -2.48376320
 C            1.61704861        0.28039634       -2.49848093
 C           -0.73330277       -2.29058306       -2.20882713
 C            0.43128639       -2.13813095       -3.08050985
 C           -2.37676146       -0.53315756       -1.72303736
 C           -1.74324641       -1.35192663       -2.65413821
 C           -3.27037662        1.69694905       -1.22204449
 C           -2.41791637        2.83075201       -1.55856324
 C           -2.97501694        0.65013668       -2.17117153
 C           -0.36426273        2.27543030       -2.84043934
 C           -1.79057819        2.53452833       -2.82719588
 C           -2.42723676        1.33162611       -3.33080637
 C            0.81208591        0.23828659       -3.63482315
 C            0.16025567       -1.01797076       -3.95207213
 C           -1.26390041       -0.77624273       -3.90281191
 C           -0.15460491        1.28437972       -3.87106875
 C           -1.44102968        0.64227119       -4.13019260
