58
Modified xyz file
 C            1.43486012        0.12194226        4.30553515
 C            0.66211757       -1.06554465        4.00322718
 C            1.54115331       -1.96848101        3.29531704
 C            2.61519488        0.10161750        3.45292160
 C            2.68226476       -1.19740837        2.82345340
 C            2.55070048        1.27225901        2.60474999
 C            0.64057677        1.27215264        3.91765731
 C            1.49679298        2.13008713        3.12967964
 C           -0.57039933       -0.65436677        3.34515322
 C           -0.58647778        0.79855279        3.30057616
 C           -1.01286731       -1.36612273        2.23202921
 C            0.99860491       -2.65567019        2.14830634
 C           -0.36215247       -2.55721763        1.88403003
 C            2.68334939       -1.27246910        1.37014823
 C            1.89948782       -2.43680718        1.03033920
 C            2.68020207        1.14166304        1.21848916
 C            2.51289141       -0.11641659        0.61650510
 C            2.46361176        2.28700484        0.46284522
 C            0.88349389        2.99347682        2.23961718
 C            1.61631194        3.31914192        1.03425287
 C           -1.03172269        1.44145295        2.14604117
 C           -0.48011359        2.68206442        1.81890586
 C           -1.76556047       -0.69475146        1.26243850
 C           -1.67094081        0.70029266        1.14870022
 C           -2.37762983       -1.43644103        0.25035981
 C           -0.77761564       -3.20956689        0.73478195
 C           -1.97985995       -2.75951104        0.06750852
 C            1.34113929       -2.54245545       -0.23674888
 C            0.21996225       -3.36060154       -0.31030563
 C            1.95853123       -0.22054773       -0.66854439
 C            1.42069525       -1.44753204       -1.11534711
 C            2.11448822        2.16794844       -0.93929478
 C            1.94977634        0.90359547       -1.50248223
 C            0.64405958        3.69141064        0.03098147
 C           -0.65104207        3.20764603        0.47413380
 C            1.14054160        3.21325193       -1.24104847
 C           -2.07052351        1.33637666       -0.03205656
 C           -1.43019776        2.50880271       -0.44147110
 C           -3.08355676       -0.77338633       -0.75353891
 C           -2.87686437        0.65165611       -0.93564953
 C           -3.21250422       -1.37039204       -2.07547370
 C           -1.89857007       -3.31644311       -1.27189336
 C           -0.48233035       -3.47963024       -1.56255970
 C           -2.48478023       -2.58517321       -2.37341283
 C            0.75035957       -1.51248514       -2.35184181
 C           -0.15306617       -2.54594757       -2.61101356
 C           -1.40278656       -2.23690504       -3.28358971
 C            1.36419945        0.82808733       -2.76157322
 C            0.71872013       -0.39772002       -3.18231012
 C            0.20335146        2.95477757       -2.22558171
 C           -1.16858071        2.70346238       -1.79990481
 C            0.52734702        1.93266893       -3.19638139
 C           -2.72793966        0.90507612       -2.36293385
 C           -2.80525900       -0.37480152       -3.04956652
 C           -1.62395280       -0.87916123       -3.73784112
 C           -0.52403877       -0.04189230       -3.86448817
 C           -1.77997769        1.82766737       -2.78339262
 C           -0.72347491        1.38171344       -3.67843874
