58
Modified xyz file
 C            1.43797910       -0.16553809        4.32187208
 C            0.61503324       -1.36126416        4.25591052
 C            1.39828453       -2.39252649        3.60996618
 C            2.57270486       -0.36855077        3.43888142
 C            2.57937699       -1.75830335        3.04046890
 C            2.50992598        0.64245450        2.40291790
 C            0.65939498        0.94110130        3.78993576
 C            1.38601885        1.51497528        2.67858637
 C           -0.66628427       -0.98404509        3.68234774
 C           -0.68117089        0.46552981        3.53582183
 C           -1.26310380       -1.76656740        2.68889692
 C            0.77429180       -3.17867001        2.56507507
 C           -0.56786459       -2.83976089        2.12089459
 C            2.60516407       -2.07150565        1.62388094
 C            1.63753229       -3.12388965        1.39618291
 C            2.73222032        0.29448419        1.07753128
 C            2.68228800       -1.05098285        0.67994981
 C            2.42282114        1.25306432        0.11960030
 C            0.65962401        1.98846854        1.58900837
 C            1.30432507        2.06937994        0.34932201
 C           -1.38054235        1.00574863        2.46384659
 C           -0.73900712        1.92639068        1.62253643
 C           -2.30277533       -1.19675020        1.95903763
 C           -2.43177863        0.25060506        1.95698820
 C           -2.53469038       -1.63652508        0.59473175
 C           -0.58924543       -3.01934260        0.67597953
 C            0.78739331       -3.02694707        0.21901685
 C           -1.52546741       -2.32370328       -0.07511533
 C            2.26818999       -1.33762711       -0.62309302
 C            1.14432761       -2.14992941       -0.80265738
 C            2.78327299        0.95402141       -1.18370869
 C            2.58839863       -0.41628664       -1.61075916
 C            2.34282301        1.82235922       -2.25139686
 C            0.63597030        2.67046999       -0.72557751
 C            1.23517549        2.71097418       -1.98383925
 C           -1.45077708        2.47558011        0.55964740
 C           -0.72663945        2.93891105       -0.61236668
 C           -3.06764663        0.64183215        0.71129891
 C           -3.24338428       -0.56361315       -0.08729706
 C           -2.66630166        1.82071308        0.09799372
 C           -3.15462906       -0.48544615       -1.47029789
 C           -1.19410583       -1.93388713       -1.37314799
 C            0.15683690       -1.75327982       -1.71135665
 C           -2.18885080       -1.33654118       -2.13953192
 C            1.78391652       -0.36708680       -2.81558636
 C            1.95439484        0.96980004       -3.36031468
 C            0.51915634       -0.95140739       -2.80194026
 C            0.40149259        2.71328906       -3.17656319
 C            0.83362407        1.60611803       -4.02042666
 C           -1.59910108        2.76891311       -1.76586390
 C           -2.71568475        1.92882640       -1.35203203
 C           -3.07793013        0.81743598       -2.10864628
 C           -1.04095028        2.62532351       -3.03191094
 C           -1.84512138       -0.70449255       -3.39459888
 C           -0.44695986       -0.51952024       -3.71247912
 C           -0.33233810        0.79960788       -4.31586001
 C           -2.47873792        0.60787422       -3.41444521
 C           -1.50086932        1.55973854       -3.90731499
