58
Modified xyz file
 C            1.54940340       -0.30576747        4.38961882
 C            0.62132084       -1.42105942        4.37073565
 C            1.06265402       -2.35496525        3.34800127
 C            2.59542176       -0.58472624        3.42173216
 C            2.32129406       -1.87163191        2.81198811
 C            2.71337379        0.57569916        2.55890525
 C            0.83604581        0.87729664        3.93325004
 C            1.60180218        1.46816362        2.86277044
 C           -0.66991012       -0.90818100        3.95577357
 C           -0.53092674        0.50512265        3.65531667
 C           -0.04872442       -2.57613825        2.43373443
 C           -1.16411074       -1.76762513        2.89713274
 C            0.19857380       -2.64711923        1.05962704
 C            2.55121367       -2.01151034        1.45245208
 C            1.51729712       -2.60232047        0.61303864
 C            3.06287768        0.39804375        1.22172827
 C            3.12115452       -0.89763410        0.70386356
 C            2.80194876        1.45457732        0.35560394
 C            0.93387162        2.06149999        1.79703758
 C            1.70993843        2.35705640        0.68750924
 C           -1.13231741        0.96568403        2.48817503
 C           -0.44194354        1.83115262        1.62154698
 C           -1.97400227       -1.19593351        1.93101593
 C           -2.15560378        0.18727219        1.95976311
 C           -0.83765713       -2.33495207        0.16840973
 C           -2.03067971       -1.82447470        0.69606348
 C           -0.56680136       -2.20930230       -1.20494511
 C            1.79351840       -2.18625300       -0.74625635
 C            2.79941000       -1.13404379       -0.69552925
 C            0.75041726       -2.06024507       -1.65261620
 C            2.76471359        1.23397651       -1.08152648
 C            2.68782642       -0.06642554       -1.58049450
 C            1.07539343        2.75857692       -0.54595113
 C            1.91363842        2.27922172       -1.63448695
 C           -1.06835603        2.21102270        0.41928741
 C           -0.30671562        2.68160152       -0.66027491
 C           -2.96165020        0.75734340        0.98733348
 C           -2.40618943        1.85486717        0.21626183
 C           -3.06396675       -1.44720517       -0.15001124
 C           -3.63976134       -0.13228726        0.05979697
 C           -1.61515880       -1.98485448       -2.09616713
 C           -2.92331138       -1.64892012       -1.57520426
 C           -1.39313103       -1.15328213       -3.26637983
 C            1.00669006       -1.33989155       -2.81861831
 C            2.01859699       -0.29516628       -2.78064859
 C           -0.08873044       -0.87872724       -3.65413505
 C            1.35117358        2.10836838       -2.89035083
 C            1.52555918        0.83089878       -3.55411589
 C            0.25270132        0.44798362       -4.14351201
 C           -0.86794559        2.76480118       -1.93463392
 C           -0.02374062        2.53086834       -3.09617241
 C           -0.68057308        1.53776129       -3.93172148
 C           -2.94414572        1.76150703       -1.13347775
 C           -3.71881680        0.53481092       -1.22480404
 C           -3.37812362       -0.43864833       -2.24534543
 C           -2.38363305       -0.08318453       -3.23898878
 C           -2.14973377        2.14413023       -2.20343814
 C           -1.97146959        1.24316779       -3.33766749
