58
Modified xyz file
 C            1.47871873        0.01788938        4.34898256
 C            0.68954509       -1.19499247        4.22143833
 C            1.48950800       -2.17090312        3.50536145
 C            2.67565761       -0.14319881        3.54180638
 C            2.71976004       -1.51939903        3.08438612
 C            2.69895150        0.92355258        2.55369468
 C            0.70715126        1.10618423        3.77842862
 C            1.49223874        1.71672128        2.71840289
 C           -0.61283890       -0.83028825        3.68698079
 C           -0.61309510        0.60178637        3.43883416
 C           -1.22411452       -1.66538549        2.76212193
 C            0.91308049       -2.82775406        2.34565159
 C           -0.45079824       -2.71797433        2.11024075
 C            2.89812021       -1.77652687        1.66638136
 C            1.83205713       -2.66519805        1.22922558
 C            3.14243283        0.64702969        1.26790426
 C            3.28757095       -0.73822607        0.83098810
 C            2.58726940        1.40147557        0.15512139
 C            0.80919614        2.16606344        1.59046956
 C            1.43746251        2.15883248        0.33807604
 C           -1.21158240        1.09595251        2.28197495
 C           -0.58269141        2.15729468        1.63581094
 C           -2.10147424       -1.08156424        1.75957642
 C           -2.09019452        0.29067213        1.54520807
 C           -0.92892414       -2.82271922        0.74648978
 C           -2.08948804       -1.95850052        0.60966994
 C            1.32358031       -2.54253908       -0.06688115
 C           -0.01929779       -2.87964494       -0.30430630
 C            2.90526375       -0.79226940       -0.56554477
 C            2.68356879        0.56916296       -1.02363576
 C            2.04172367       -1.78825896       -1.00957559
 C            1.78587001        0.77178259       -2.06485841
 C            0.68951749        2.52589148       -0.78513712
 C            0.89060365        1.84548355       -2.00254452
 C           -1.26944701        2.79990621        0.62335711
 C           -0.51447263        3.18723168       -0.54656222
 C           -2.59606453        0.78598684        0.33916123
 C           -2.46138620        2.15624327        0.11965707
 C           -2.36596655       -1.42687192       -0.64412903
 C           -2.76327845       -0.08945320       -0.75223048
 C           -0.54050786       -2.76550289       -1.58736546
 C           -1.80559371       -2.06326276       -1.75168155
 C            1.55155931       -1.65766686       -2.30326994
 C            1.48424772       -0.32110923       -2.87745553
 C            0.33375282       -2.34810164       -2.65851418
 C           -1.78443960       -1.39599985       -3.04272323
 C            0.33717852       -0.27248093       -3.76871126
 C           -0.42594265       -1.49336096       -3.55580806
 C            0.02914149        2.05415652       -3.08406425
 C           -0.35292320        0.92244467       -3.91422419
 C           -1.47707210        3.37556529       -1.61258712
 C           -2.71115556        2.72204357       -1.19030179
 C           -1.14805867        2.88909696       -2.92972806
 C           -3.07963323        0.40787675       -2.02028616
 C           -2.46376309       -0.19537139       -3.19191802
 C           -1.80508799        0.87312534       -3.92388535
 C           -3.12932189        1.83989777       -2.25176827
 C           -2.29611389        2.13517477       -3.40570429
