58
Modified xyz file
 C            1.30719758        0.04870429        4.18312121
 C            0.51303265       -1.14150144        3.93593410
 C            1.37313168       -2.11740713        3.31020524
 C            2.54622390       -0.09045531        3.43640661
 C            2.63729545       -1.46139536        2.99635606
 C            2.57968981        0.95785403        2.43672711
 C            0.58438214        1.18228556        3.63235722
 C            1.44816715        1.84278142        2.67912680
 C           -0.68723556       -0.73354059        3.23525797
 C           -0.69917659        0.71480843        3.15504568
 C           -1.12529248       -1.44336399        2.12329666
 C            0.91527690       -2.76833970        2.09650430
 C           -0.33232891       -2.45699555        1.55444499
 C            2.91663919       -1.72206555        1.59809639
 C            2.05819776       -2.82759624        1.20854900
 C            2.92976749        0.66703078        1.11552355
 C            3.10770586       -0.66605442        0.70150067
 C            2.68401859        1.66138195        0.16863441
 C            0.86037508        2.46278063        1.58290664
 C            1.65928367        2.65104360        0.46078004
 C           -1.21702006        1.29618700        2.00140931
 C           -0.52655320        2.36005109        1.41126653
 C           -2.10386649       -0.84575781        1.33826181
 C           -2.10647314        0.55224827        1.21989423
 C           -2.68905853       -1.62634923        0.35748309
 C           -0.60388311       -2.88308892        0.24751253
 C           -1.84763876       -2.59538862       -0.31189720
 C            1.83447150       -3.04610233       -0.14166100
 C            0.46253345       -3.13595203       -0.62153638
 C            3.13404024       -0.97528090       -0.65974858
 C            2.57851959       -2.24517906       -1.09811552
 C            2.58962818        1.33309426       -1.24344757
 C            2.75838101        0.02198230       -1.64563884
 C            1.04743244        3.04894841       -0.79205270
 C            1.49982172        2.11189579       -1.80891811
 C           -1.11929581        3.01013940        0.33242756
 C           -0.28624532        3.42734821       -0.78822930
 C           -2.74410292        1.17765302        0.14124424
 C           -2.34999219        2.46695888       -0.21969573
 C           -3.53566371       -1.00497464       -0.63880015
 C           -3.56347632        0.43910611       -0.71503730
 C           -1.90586549       -2.27174282       -1.72567961
 C           -3.11334936       -1.50119138       -1.94080940
 C            0.42316192       -2.57713878       -1.96620699
 C            1.71570135       -1.98775234       -2.23965912
 C            1.77206561       -0.57296333       -2.53426490
 C           -0.72510316       -1.90287530       -2.36104681
 C            0.55624499        1.49783243       -2.63235696
 C            0.58332317        0.10703417       -2.78559928
 C           -0.61413852       -0.61538335       -2.91147000
 C           -1.05388593        3.22350164       -2.00418698
 C           -2.40606679        2.87737754       -1.61289286
 C           -0.60229247        2.20626237       -2.93776380
 C           -3.61076632        0.76736549       -2.13084720
 C           -3.05732656       -0.37090180       -2.84276741
 C           -1.76316855        0.03963754       -3.35555336
 C           -2.91068529        1.94447134       -2.59964167
 C           -1.77575851        1.48897197       -3.39474922
