58
Modified xyz file
 C            1.56014331        0.15571974        4.07664037
 C            0.75405222       -1.04145481        3.92425317
 C            1.33623455       -1.84812196        2.86314693
 C            2.59261752        0.12174296        3.05724743
 C            2.56225874       -1.18925912        2.43728637
 C            2.42903316        1.28947241        2.20642712
 C            0.70708846        1.29635124        3.79876837
 C            1.34499569        2.08625809        2.76244719
 C           -0.63172221       -0.63075728        3.79331235
 C           -0.64118162        0.80627808        3.56103425
 C           -1.46998651       -1.42843575        3.03510957
 C            0.48114001       -2.41841049        1.91497038
 C           -0.87815212       -2.47931831        2.22047431
 C            0.91512633       -2.57303805        0.58674939
 C            2.93282473       -1.28254043        1.10928164
 C            2.22174299       -2.21214751        0.25840257
 C            2.53735255        1.12774132        0.82185220
 C            3.08454717       -0.05602949        0.33769155
 C            1.78692344        1.94022838       -0.03595106
 C            0.53170071        2.78987217        1.89360892
 C            0.93419610        2.90150601        0.50822394
 C           -1.36405805        1.33279186        2.48754286
 C           -0.89557210        2.50209442        1.88273920
 C           -2.47943935       -0.79294317        2.21245714
 C           -2.31663840        0.53899304        1.83511498
 C           -1.83195314       -2.79398449        1.18114795
 C           -2.86754887       -1.77153300        1.21153974
 C            0.00684523       -2.89173098       -0.43974138
 C           -1.35986619       -2.90239714       -0.17839687
 C            0.38692555       -2.75285355       -1.77624118
 C            2.53426510       -1.82002915       -1.09899392
 C            2.90444629       -0.41037470       -1.05529473
 C            1.71090997       -2.25837503       -2.11873902
 C            1.70540464        1.65344862       -1.40764104
 C            2.28115070        0.48028979       -1.92315910
 C            0.87142182        2.44368235       -2.20595858
 C           -0.25128176        3.29985213       -0.22649147
 C           -1.39980878        2.90861463        0.58112336
 C           -0.27068835        3.09862632       -1.59673240
 C           -2.91205488        0.98268694        0.65218240
 C           -2.43706983        2.19292753        0.00338359
 C           -3.09994815       -1.32815294       -0.15080500
 C           -2.23807771       -2.10676868       -1.02336903
 C           -3.25220547        0.02505644       -0.39297012
 C           -0.55962632       -2.14532792       -2.69953753
 C           -1.70387407       -1.53960506       -2.17994267
 C            1.57670972       -1.41858417       -3.29623438
 C            1.90027126       -0.00907037       -3.17493656
 C            0.19956005       -1.50457821       -3.75183187
 C            0.42098298        1.96310684       -3.49543815
 C            0.93510024        0.70581926       -3.98328349
 C           -0.19858432       -0.18537641       -4.18727977
 C           -1.46182450        2.54711559       -2.22606780
 C           -2.44173309        1.96255444       -1.43333350
 C           -2.79228282        0.56751084       -1.65594861
 C           -2.01476981       -0.20978770       -2.51630465
 C           -1.02741900        1.84540841       -3.42240913
 C           -1.34860380        0.43523604       -3.56112625
