58
Modified xyz file
 C            1.46460896       -0.28387676        4.27341268
 C            0.58782476       -1.43548950        4.17865580
 C            1.09863188       -2.28984396        3.12352045
 C            2.47007571       -0.39940883        3.22868453
 C            2.21166253       -1.61162792        2.48732777
 C            2.48927058        0.84826053        2.50107271
 C            0.67301440        0.89566980        3.97691365
 C            1.43181003        1.69463612        3.03987627
 C           -0.71937778       -0.96649770        3.75112344
 C           -0.64704723        0.46759871        3.56568321
 C           -0.02427874       -2.66048587        2.28230705
 C           -1.12663395       -1.77785724        2.62322365
 C            0.21678425       -2.87251745        0.92953389
 C            2.21793133       -1.57137683        1.09801046
 C            1.48224989       -2.54639035        0.43106698
 C            2.66790906        0.83072887        1.11771182
 C            2.51162784       -0.37836162        0.41611709
 C            2.43017039        2.03311752        0.45300429
 C            0.73979364        2.48513014        2.13262917
 C            1.49435374        2.95822998        1.06694775
 C           -1.16419069        1.01590632        2.39714563
 C           -0.62258905        2.21225863        1.92186692
 C           -1.80776501       -1.17632115        1.57208881
 C           -1.93035186        0.22102505        1.53343908
 C           -0.87220604       -2.78703842        0.06184187
 C           -1.89719259       -1.88866760        0.37930304
 C           -0.68649514       -3.20538261       -1.25293371
 C            1.72139156       -2.71334723       -0.92444569
 C            0.67832111       -3.31818242       -1.73008886
 C            2.34748560       -0.35471469       -0.97660972
 C            2.22941855       -1.56572769       -1.65542143
 C            2.15412022        2.02837263       -0.97095938
 C            1.90839712        0.81744433       -1.59758555
 C            0.84895057        3.71370132        0.01758497
 C            1.28455644        3.15508010       -1.25334539
 C           -1.31802146        2.89219297        0.92587417
 C           -0.59584124        3.76205646        0.01303152
 C           -2.55573695        0.81854521        0.43162385
 C           -2.31577166        2.16869328        0.15222434
 C           -2.73505358       -1.39666537       -0.61165645
 C           -3.11081887        0.00566022       -0.55872002
 C           -1.48386376       -2.62863483       -2.32240904
 C           -2.51663379       -1.75968988       -2.00270710
 C            0.74985787       -2.73432420       -3.05560914
 C            1.61962471       -1.57359138       -2.97253125
 C           -0.57864286       -2.26557234       -3.40202266
 C            0.97305892        0.75855407       -2.64103300
 C            0.85511566       -0.41201470       -3.38307072
 C           -0.46931405       -0.86768936       -3.78099277
 C            0.10594162        2.93349170       -2.06670176
 C           -1.03569580        3.45376399       -1.33376500
 C           -2.21873889        2.62105891       -1.23361332
 C           -0.03839573        1.72077032       -2.73295065
 C           -3.17007199        0.49537586       -1.92368910
 C           -2.69110994       -0.55799478       -2.80219512
 C           -1.55830613       -0.03679870       -3.55318842
 C           -2.44849522        1.70653829       -2.24976036
 C           -1.32531894        1.32223004       -3.09484127
