58
Modified xyz file
 C            1.60910596        0.11770665        4.31247836
 C            0.85062201       -1.12276111        4.31775655
 C            1.57450936       -2.08265648        3.50597746
 C            2.64803582       -0.00511966        3.30511095
 C            2.71392754       -1.39457766        2.91621213
 C            2.39731467        0.98637219        2.27187235
 C            0.71377333        1.17931126        3.89285115
 C            1.24960289        1.77636910        2.68049119
 C           -0.52528518       -0.80651580        3.97370169
 C           -0.63227466        0.64123752        3.85317669
 C           -1.21365305       -1.62519878        3.08134006
 C            0.87345164       -2.77711921        2.43686130
 C           -0.49994674       -2.63852966        2.31076084
 C            2.72222988       -1.69906997        1.50263726
 C            1.69881047       -2.69787668        1.24557781
 C            2.50893298        0.63255209        0.92804734
 C            2.87496876       -0.67507296        0.57360943
 C            1.87097100        1.43992036       -0.01714179
 C            0.35704407        2.20459061        1.70130864
 C            0.76231602        2.20412013        0.36747914
 C           -1.51377686        1.18507501        2.92920917
 C           -1.00620927        2.15774783        1.97301444
 C           -2.23935868       -1.05328707        2.22246119
 C           -2.43198612        0.31773370        2.20567998
 C           -1.08992704       -2.68651380        0.98638527
 C           -2.22928985       -1.78133514        0.96526935
 C            1.11487702       -2.71559097       -0.02285252
 C           -0.28229677       -2.78091713       -0.14702635
 C            2.75438268       -1.05335808       -0.75650220
 C            1.87139602       -2.16927057       -1.06098598
 C            2.12133664        1.22508308       -1.37158732
 C            2.53537604       -0.04164957       -1.76958600
 C            1.52217101        2.05931951       -2.31173740
 C           -0.11678074        2.67776318       -0.60980205
 C            0.37454555        2.84943113       -1.90309961
 C           -1.93872348        2.18206556        0.86500328
 C           -2.73866604        0.96912665        0.94560246
 C           -1.49939517        2.57857666       -0.39061124
 C           -2.54805904       -1.13576941       -0.22950847
 C           -2.91948439        0.21836765       -0.21722606
 C           -0.88450812       -2.52761856       -1.37950939
 C           -2.09921661       -1.72672905       -1.41065917
 C            1.27344472       -1.92095455       -2.35981575
 C            1.86560180       -0.69821185       -2.88241090
 C           -0.08016827       -2.15655245       -2.53104065
 C            1.23913126        1.52318845       -3.63305088
 C            1.15583705        0.08328123       -3.78353136
 C           -0.54714352        2.91240087       -3.02560428
 C           -0.00941212        2.09600495       -4.09966080
 C           -2.33291586        2.23780196       -1.45084574
 C           -2.97338763        0.93411410       -1.41514589
 C           -1.91465608        2.50062346       -2.80987356
 C           -2.12140610       -0.98900132       -2.65950056
 C           -0.86819446       -1.25574442       -3.35830495
 C           -0.23354350       -0.24358782       -4.07465088
 C           -0.93837018        1.00132522       -4.32942759
 C           -2.67755238        0.28052874       -2.67688180
 C           -2.14812829        1.28885087       -3.58229437
