58
Modified xyz file
 C            1.02684001       -0.12823048        3.88692441
 C            2.26822434       -0.42724710        3.20676248
 C            2.13242153       -1.74524460        2.60534167
 C            0.17597310       -1.30059261        3.76276365
 C            0.74261089       -2.12706659        2.71643869
 C           -1.18119938       -0.83273246        3.61177184
 C            0.24871660        1.01142720        3.43888115
 C           -1.14326008        0.62240145        3.53715535
 C            0.66379918        1.72924649        2.31911731
 C            2.72112144        0.47412830        2.16669943
 C            1.98679835        1.61431242        1.86299876
 C            2.71644496       -1.68596365        1.28049440
 C            3.22151414       -0.33589722        1.06971225
 C            2.06952329       -2.31280046        0.22478618
 C            0.02788466       -2.34923002        1.54028971
 C            0.72700937       -2.70060233        0.38130960
 C           -1.94983276       -1.28878687        2.47213324
 C           -1.34042044       -2.03856085        1.46283406
 C           -2.05548151        1.02063502        2.47885846
 C           -2.78748307       -0.17153259        2.09189456
 C           -0.29749714        2.37394950        1.53025489
 C           -1.60980945        1.88344419        1.47972808
 C            0.11267693        3.33305528        0.61162651
 C            2.37320805        2.31020596        0.72569515
 C            1.49529038        3.32946886        0.18595692
 C            3.21511876        0.19760010       -0.22388324
 C            2.92732289        1.55613434       -0.39102091
 C            2.55737218       -2.02006418       -1.04255785
 C            3.02134200       -0.66864738       -1.30430688
 C            1.85233961       -2.48416033       -2.21777389
 C            0.00538263       -3.18929850       -0.70408266
 C            0.57928005       -3.14372076       -2.03638319
 C           -2.00945718       -2.16042801        0.23893909
 C           -1.39769869       -2.83708496       -0.81755674
 C           -3.37593860       -0.20144987        0.84180601
 C           -3.11322068       -1.34287477       -0.01915319
 C           -2.34450201        1.96485633        0.28974360
 C           -3.29270730        0.98316508        0.00414932
 C           -0.69484107        3.56470076       -0.56792289
 C           -1.88832660        2.76521101       -0.75536511
 C            1.51082614        3.20610426       -1.26313613
 C            2.22246247        1.98817857       -1.58713795
 C            0.15452792        3.35757343       -1.73259679
 C            2.29906653       -0.19592343       -2.47678232
 C            1.64131525       -1.33241867       -3.08323259
 C            1.63973572        1.02342142       -2.40364806
 C           -0.37799292       -2.48190892       -2.90325295
 C           -1.63970298       -2.40861130       -2.19336925
 C            0.22633049       -1.24189837       -3.35888377
 C           -3.37293979       -0.90915617       -1.37967223
 C           -3.45192222        0.54308615       -1.37150676
 C           -2.44473655       -1.30235262       -2.41824023
 C           -1.82378406        2.20750821       -2.09904230
 C           -0.43649029        2.28606818       -2.51135550
 C            0.27216229        1.10232021       -2.73209169
 C           -0.44213827       -0.04524647       -3.11303299
 C           -2.53430279        1.05055843       -2.37653906
 C           -1.82895634       -0.08902859       -2.94153966
