58
Modified xyz file
 C            1.32611055       -0.06550105        3.80635681
 C            2.48325656       -0.39869165        3.01317679
 C            2.25070050       -1.71566238        2.42939202
 C            0.48793473       -1.25068829        3.83826050
 C            0.87376294       -2.05760576        2.69636136
 C           -0.87850198       -0.78941123        3.91932842
 C            0.48171820        1.02425961        3.36140948
 C           -0.86154274        0.66002686        3.75557406
 C            0.68500053        1.57524504        2.09536711
 C            2.83810513        0.47136588        1.91277857
 C            1.93178385        1.43455786        1.46042012
 C            2.69509231       -1.64516767        1.05441945
 C            3.43949148       -0.40604887        0.93590398
 C            1.82029156       -1.98411848        0.02504676
 C           -0.01541023       -2.19037419        1.62957559
 C            0.46886914       -2.26381054        0.30852637
 C           -1.83264407       -1.29830806        2.95749729
 C           -1.38898831       -2.05588656        1.87226281
 C           -1.95959259        1.00082675        2.87259647
 C           -2.75301346       -0.20707736        2.70940181
 C           -0.40143880        2.12531142        1.40158975
 C           -1.71899720        1.79648279        1.75643238
 C           -0.16933463        2.82867789        0.22442656
 C            2.12717672        1.95973767        0.17744363
 C            1.13657142        2.74625610       -0.40592910
 C            3.64407407        0.09766576       -0.33200152
 C            3.14504009        1.43122822       -0.62146383
 C            2.19992409       -1.64087249       -1.27490541
 C            3.23578480       -0.71845481       -1.45712478
 C            1.37136424       -1.98006282       -2.33714758
 C           -0.42173680       -2.52606698       -0.74415706
 C           -0.00727177       -2.32398811       -2.06104510
 C           -2.28839376       -2.28962764        0.84226651
 C           -1.79302477       -2.46638777       -0.50662199
 C           -3.60543833       -0.30282846        1.61836577
 C           -3.49728508       -1.47779222        0.76870940
 C           -2.73286638        1.89580258        0.80423831
 C           -3.74527655        0.85366655        0.74831593
 C           -1.16983481        2.80436461       -0.83165499
 C           -2.40682905        2.24740713       -0.56491509
 C            0.92051170        2.70246107       -1.84776462
 C           -0.48960703        2.42870612       -2.05640207
 C            3.05083963        1.52535639       -2.07081586
 C            3.22294877        0.17927030       -2.59873737
 C            1.85421242        2.08569070       -2.66760117
 C            1.38025005       -1.18526774       -3.55764484
 C            2.24106332       -0.02336196       -3.64117325
 C            1.38851745        1.15584456       -3.68426352
 C           -0.84363497       -1.50025645       -2.92403224
 C           -0.87457245        1.27027097       -2.73314933
 C            0.02055686       -0.73326113       -3.79034315
 C            0.00501515        0.70475815       -3.65183197
 C           -2.60298440       -1.63876076       -1.38594977
 C           -3.67283777       -1.05420054       -0.61009742
 C           -3.81624779        0.38185652       -0.62634356
 C           -2.87377195        1.16113515       -1.40969673
 C           -1.94354916       -0.88228833       -2.34690228
 C           -1.96134145        0.52359767       -2.25572839
