58
Modified xyz file
 C            1.59387072       -0.15336473        4.32712186
 C            0.73210161       -1.29673786        4.56760673
 C            1.07992253       -2.32590411        3.60487359
 C            2.47186080       -0.48101762        3.21738460
 C            2.13773799       -1.80984276        2.74893068
 C            2.40127912        0.60793777        2.26480313
 C            0.75749859        0.95457594        3.89972932
 C            1.33577072        1.50016801        2.68888532
 C           -0.63312665       -0.89140109        4.28671912
 C           -0.61456323        0.49493676        3.84441672
 C           -0.15071655       -2.78543820        2.98306803
 C           -1.22029749       -1.88978537        3.40878718
 C           -0.09230192       -3.20142468        1.65854533
 C            2.04404723       -2.01838631        1.37571310
 C            1.13003547       -2.96310818        0.90916005
 C            2.48509685        0.31340830        0.90895835
 C            2.49789197       -1.02429108        0.50027817
 C            2.02659546        1.27578908        0.01215987
 C            0.48381059        1.98921241        1.70549359
 C            1.00124070        2.13431853        0.42023759
 C           -1.38314039        0.85153844        2.73982650
 C           -0.89682825        1.81843645        1.85145291
 C           -2.16630957       -1.46464983        2.48404937
 C           -2.36471386       -0.03660945        2.30016135
 C           -1.20321033       -2.92554412        0.75943455
 C           -2.21889130       -2.07501536        1.16369945
 C            0.77818646       -2.98145721       -0.49804811
 C           -0.66100782       -2.79708918       -0.58384134
 C            2.50498307       -1.29587349       -0.86639764
 C            1.58120044       -2.29267158       -1.39022937
 C            2.28001503        1.10216826       -1.34569316
 C            2.52402030       -0.18768846       -1.81255228
 C            1.83332300        2.07060842       -2.23942814
 C            0.24452882        2.80657682       -0.53555657
 C            0.76785846        2.96277733       -1.81535746
 C           -1.72695501        2.24795280        0.81800215
 C           -1.13535291        2.87665168       -0.35605308
 C           -2.95705011        0.14643033        0.98866418
 C           -2.71911162       -1.07361894        0.23534026
 C           -2.77922544        1.35875859        0.34531375
 C           -1.16501088       -1.83758920       -1.46308984
 C           -2.19330473       -0.97645267       -1.05378169
 C            0.96613869       -1.72163233       -2.57496361
 C            1.84536334       -0.65293460       -3.01285598
 C           -0.41506070       -1.52083926       -2.59906963
 C            1.57048833        1.68632432       -3.61675951
 C            1.35528741        0.28184361       -3.91215878
 C           -0.14795934        3.12535251       -2.93277959
 C            0.41042444        2.42856200       -4.07841861
 C           -2.01695187        2.58138013       -1.47557647
 C           -2.72566800        1.36988776       -1.10556147
 C           -2.45093857        0.18398110       -1.78876504
 C           -1.52305392        2.69217893       -2.76651987
 C           -0.93975019       -0.62761989       -3.52696997
 C           -0.02063159        0.13857415       -4.35548813
 C           -0.57733617        1.46728659       -4.53760884
 C           -2.00408004        0.26363761       -3.10336086
 C           -1.73802972        1.57673298       -3.67193174
