58
Modified xyz file
 C            1.54266708        0.05231935        3.94474273
 C            0.72657506       -1.14704918        3.86373445
 C            1.30576441       -2.00751025        2.84967936
 C            2.49108318        0.01683965        2.84529801
 C            2.42777382       -1.29902926        2.24869182
 C            2.24186199        1.15870915        1.99041210
 C            0.67170917        1.19201641        3.73472557
 C            1.15985505        1.92613424        2.57870938
 C           -0.65810334       -0.74252499        3.72420619
 C           -0.69845229        0.71411094        3.71924488
 C           -1.47579543       -1.46124520        2.86014008
 C            0.47268367       -2.75190901        2.01574742
 C           -0.91272473       -2.54346307        2.05947844
 C            1.04333829       -3.28984751        0.86466093
 C            2.61228510       -1.41961077        0.87663343
 C            2.19432944       -2.61081739        0.29179097
 C            2.24672362        0.96688775        0.61293243
 C            2.67126216       -0.26010351        0.09131661
 C            1.53053144        1.85342863       -0.19873348
 C            0.23505817        2.51461151        1.72583200
 C            0.58349868        2.70897304        0.38976710
 C           -1.60387672        1.37544635        2.90063879
 C           -1.11895014        2.45852670        2.05960757
 C           -2.45679220       -0.76597519        2.03895568
 C           -2.55706643        0.61564810        2.10381732
 C           -1.71175419       -2.63305414        0.84137576
 C           -2.48862087       -1.41218421        0.73798407
 C            0.18826422       -3.70875512       -0.22985865
 C           -1.15458684       -3.17207324       -0.30488989
 C            2.11575131       -2.72239363       -1.15317397
 C            0.86724701       -3.39649528       -1.47554754
 C            2.82415937       -0.38059454       -1.28479776
 C            2.51654276       -1.64787350       -1.93353461
 C            1.66635199        1.77209239       -1.59308472
 C            2.35084445        0.69105842       -2.14601852
 C            0.80867919        2.49392109       -2.42542380
 C           -0.30250708        3.42732492       -0.40807937
 C           -0.12123358        3.43674406       -1.84283817
 C           -2.10816970        2.64261739        1.01456908
 C           -2.79513894        1.36565124        0.87928558
 C           -1.72745684        3.30465183       -0.14099201
 C           -2.41469145       -0.63492991       -0.41828481
 C           -2.78096121        0.71263684       -0.35654885
 C           -1.27073659       -2.44152141       -1.55756970
 C           -0.08697610       -2.73413822       -2.34959042
 C           -1.79939438       -1.14967810       -1.56853540
 C            1.76981759       -1.35313605       -3.14391153
 C            1.81502085        0.08207954       -3.35016247
 C            0.37942743       -1.77324662       -3.23533144
 C            0.11035292        1.79737080       -3.50094039
 C           -1.52506615       -0.31378070       -2.65476215
 C            0.50238994        0.50233788       -3.79594779
 C           -0.41736193       -0.57994835       -3.46581694
 C           -1.42180546        3.20524021       -2.45057693
 C           -2.34637912        2.88565476       -1.38131691
 C           -2.73109981        1.48943869       -1.51000571
 C           -1.30252362        2.03091797       -3.29128824
 C           -2.08362421        0.95949850       -2.69641557
