58
Modified xyz file
 C            1.58399019        0.06797780        4.11639422
 C            0.76871772       -1.11569093        3.90345976
 C            1.34279259       -1.85133347        2.78680162
 C            2.62537716        0.06176990        3.10907692
 C            2.64188240       -1.25918330        2.51043247
 C            2.42400137        1.20214466        2.22647373
 C            0.74427409        1.22135873        3.86662201
 C            1.22778481        1.89013606        2.66601836
 C           -0.61575140       -0.68742480        3.81762940
 C           -0.63491581        0.77012854        3.89140807
 C           -1.44932908       -1.33753966        2.91527918
 C            0.51542414       -2.22955147        1.72439806
 C           -0.86136760       -2.21205440        1.90796723
 C            1.04549298       -2.34005026        0.43213919
 C            3.13546099       -1.35481619        1.22442032
 C            2.42227174       -2.18527145        0.27681958
 C            2.64828085        1.01138968        0.86808906
 C            3.38649012       -0.11515315        0.51241581
 C            1.76900338        1.57607019       -0.06975757
 C            0.29354048        2.31211792        1.72809047
 C            0.57914171        2.19947884        0.35783170
 C           -1.54725694        1.47477658        3.11974766
 C           -1.03041548        2.42807674        2.15218595
 C           -2.53930210       -0.60804165        2.28652016
 C           -2.63215951        0.76538665        2.46216996
 C           -1.73088811       -2.20169683        0.75394608
 C           -2.75470784       -1.18828567        0.96775673
 C            0.19671180       -2.30009450       -0.69514003
 C           -1.19805041       -2.34548319       -0.51868450
 C            0.74400856       -2.19049862       -1.99252234
 C            2.95695757       -1.82033214       -1.01423399
 C            3.50410164       -0.47444577       -0.87945138
 C            2.06902170       -1.80132947       -2.14975529
 C            2.01447823        1.39006620       -1.44032691
 C            2.84118771        0.34995344       -1.86260001
 C            2.34880886       -0.57096375       -2.86911179
 C            1.15148149        1.94747971       -2.37542186
 C           -0.37507089        2.62413890       -0.58167400
 C           -0.11812948        2.48182885       -1.93676009
 C           -2.07518963        2.64849560        1.18130312
 C           -3.06333507        1.59142157        1.35057023
 C           -1.71417295        2.68962078       -0.21494004
 C           -3.15669625       -0.39562521       -0.11052688
 C           -3.27770766        0.98347354        0.04809645
 C           -2.66773233        1.86515559       -0.93564946
 C           -2.04014314       -2.00957131       -1.57033357
 C           -2.95112919       -0.89020751       -1.39510803
 C           -0.08825433       -1.99818602       -3.09394285
 C           -1.51852120       -1.94738469       -2.91352779
 C            1.40923470       -0.11507901       -3.78020550
 C            0.92149174        1.24672296       -3.63438394
 C            0.26246252       -0.96487919       -4.05815292
 C           -1.15820368        1.90438027       -2.77702515
 C           -2.28556519        1.34602574       -2.16779854
 C           -2.67937028        0.04206498       -2.47746184
 C           -2.00211080       -0.71428919       -3.51914173
 C           -0.50953166        1.24217022       -3.89421907
 C           -0.89886524       -0.10934786       -4.23620643
