58
Modified xyz file
 C            1.61422602       -0.23496852        4.48929761
 C            0.76139146       -1.40837194        4.52889862
 C            1.18472876       -2.29229527        3.46100997
 C            2.51009299       -0.37016799        3.35067352
 C            2.23103222       -1.62621623        2.69829113
 C            2.40310821        0.83136052        2.56272998
 C            0.76749059        0.91907031        4.24324302
 C            1.34189679        1.65317471        3.13133119
 C           -0.59547013       -0.98705344        4.22215251
 C           -0.60412312        0.46248976        4.13075203
 C           -0.00716324       -2.71447860        2.74867556
 C           -1.05805162       -1.76432603        3.07919866
 C            0.14725218       -3.07027771        1.42361204
 C            2.14620465       -1.66709784        1.30704514
 C            1.38697190       -2.69426398        0.76445070
 C            2.48688604        0.74687295        1.17837001
 C            2.35662595       -0.50229186        0.54058723
 C            2.12090655        1.89049852        0.48961809
 C            0.49745479        2.33219212        2.25352895
 C            1.02568863        2.68767712        1.01642047
 C           -1.40896470        1.05185616        3.16865126
 C           -0.88179557        2.15132912        2.36862370
 C           -1.74829850       -1.11289169        2.05128566
 C           -2.15845285        0.19811213        2.25984048
 C           -0.90779704       -2.73268848        0.48993680
 C           -1.70401341       -1.62346590        0.74453778
 C            1.11723832       -2.69141870       -0.64823098
 C           -0.31523597       -2.87498694       -0.81903582
 C            2.17996434       -0.55423310       -0.86232491
 C            1.74146784       -1.75571109       -1.45558221
 C            1.99265218        1.84627896       -0.94260205
 C            2.17414939        0.64482925       -1.60593519
 C            0.14557579        3.01642127       -0.09646583
 C            0.86732843        2.68670556       -1.31807391
 C           -1.72400060        2.23437248        1.18439583
 C           -2.51426885        1.01319424        1.12402337
 C           -1.21757459        2.74961933       -0.00700320
 C           -2.15493437       -0.85324488       -0.34237386
 C           -2.69531311        0.42350589       -0.11477666
 C           -0.90159022       -2.24607055       -1.90401749
 C           -1.89478396       -1.28418994       -1.66236885
 C            1.31519431       -1.75602019       -2.77876341
 C           -0.07723218       -2.10143193       -3.01734900
 C            1.83908574        0.63626957       -2.95655611
 C            1.62450422       -0.62626194       -3.61337313
 C            0.16498065        2.36981403       -2.47586629
 C            0.80493257        1.55638905       -3.41533104
 C           -1.92156602        2.46647453       -1.17624106
 C           -2.80238634        1.30864546       -1.17574032
 C           -1.22894497        2.46341648       -2.45453052
 C           -2.42636496       -0.56591329       -2.74019734
 C           -2.86496069        0.79205743       -2.52031251
 C           -2.04289216        1.65621459       -3.35245074
 C           -0.53909488       -1.35573946       -4.16591070
 C            0.53887543       -0.46738098       -4.56957431
 C            0.04338119        0.89224835       -4.46008566
 C           -1.73987415       -0.56427712       -4.02317233
 C           -1.39613992        0.81664571       -4.33693590
