58
Modified xyz file
 C            1.49067235        0.05118086        4.26479075
 C            0.69270512       -1.15426889        4.16943655
 C            1.44836517       -2.12179673        3.39640215
 C            2.62967037       -0.10214886        3.37202923
 C            2.58882970       -1.43298619        2.81224055
 C            2.61282679        1.01591236        2.45740841
 C            0.68447817        1.15305691        3.76402878
 C            1.48671328        1.86562505        2.80645817
 C           -0.62915176       -0.77440908        3.70050175
 C           -0.57888561        0.62587333        3.30565926
 C           -1.32599165       -1.65622002        2.89196498
 C            0.76677756       -2.82639272        2.32791711
 C           -0.61962907       -2.77401344        2.26820384
 C            2.50241133       -1.57573384        1.36737031
 C            1.51860919       -2.61084072        1.10113112
 C            2.85113212        0.80846796        1.09831155
 C            2.53855776       -0.44435915        0.54409996
 C            2.70120664        1.93771722        0.30202658
 C            0.85966365        2.50068158        1.74797725
 C            1.73264330        2.91982969        0.76004052
 C           -1.04311434        1.00244574        2.04033604
 C           -0.41515314        2.04995783        1.34393634
 C           -2.20322929       -1.10591572        1.87913636
 C           -1.94842137        0.17033773        1.37505032
 C           -1.25839280       -3.01121397        0.98676206
 C           -2.45596476       -2.18889455        0.95359048
 C            0.83445912       -2.58149628       -0.10772842
 C           -0.47145641       -3.08231758       -0.16059998
 C            1.93574598       -0.52214458       -0.72238250
 C            1.26717223       -1.69304380       -1.09256852
 C            2.47575990        1.78443436       -1.11848171
 C            1.93924742        0.58682776       -1.58025535
 C            1.19116877        3.57896769       -0.39544264
 C            1.89030533        3.03932267       -1.54866399
 C           -0.90409688        2.42251373        0.07814257
 C           -0.21759845        3.40475201       -0.64849816
 C           -2.35083351        0.47415193        0.07375856
 C           -1.86949656        1.62371369       -0.55853753
 C           -2.99568404       -1.88052159       -0.28160366
 C           -3.06290602       -0.47983510       -0.66539707
 C           -1.13078462       -3.11109317       -1.38591847
 C           -2.49521057       -2.60931363       -1.43393916
 C            0.75075894       -1.81314011       -2.37440876
 C           -0.44010134       -2.61862221       -2.56369664
 C            1.18623853        0.56947096       -2.76666913
 C            0.61963497       -0.62774839       -3.19820907
 C            0.93781287        3.01843708       -2.63239357
 C           -0.33934698        3.46584396       -2.08956001
 C            0.68138445        1.76078499       -3.29867379
 C           -2.20139251        1.83942495       -1.90094415
 C           -1.37145115        2.68682042       -2.72695648
 C           -0.71472144        1.81060021       -3.68395816
 C           -3.04225535       -0.43331213       -2.11853344
 C           -2.61850461       -1.74274141       -2.59079126
 C           -1.38693942       -1.84396378       -3.34919759
 C           -0.73082439       -0.61659995       -3.75161587
 C           -2.53653239        0.70096286       -2.73411076
 C           -1.45688057        0.56697201       -3.70897568
