58
Modified xyz file
 C            1.65498477       -0.03575627        4.01142454
 C            0.79451777       -1.19830477        3.88357764
 C            1.33959672       -2.04065968        2.83608560
 C            2.62479111       -0.08130409        2.92970792
 C            2.46429590       -1.33631996        2.23572321
 C            2.49842271        1.13391197        2.16164246
 C            0.83272939        1.14489509        3.81864910
 C            1.39431345        1.90506288        2.71720654
 C           -0.57273900       -0.73617417        3.75817765
 C           -0.54984880        0.72106332        3.73141134
 C           -1.42716731       -1.42962762        2.90956322
 C            0.47508134       -2.73738302        1.99490396
 C           -0.90635527       -2.52237508        2.09628731
 C            1.00565046       -3.22311208        0.80282038
 C            2.59522997       -1.36709355        0.85086006
 C            2.12126648       -2.50691894        0.20517613
 C            2.63040150        1.07839027        0.77858080
 C            2.72173691       -0.16624901        0.13084767
 C            2.18203981        2.18793216        0.06859529
 C            0.54027327        2.56956384        1.83766183
 C            1.05009639        2.93311869        0.59483091
 C           -1.39166577        1.40673495        2.86631761
 C           -0.84113542        2.43889522        1.99332268
 C           -2.39989439       -0.70419884        2.10568592
 C           -2.40287913        0.68174906        2.11274993
 C           -1.75933283       -2.62071864        0.91704768
 C           -2.55623076       -1.40757330        0.84220510
 C            0.11711258       -3.63324049       -0.26669528
 C           -1.25520099       -3.16806810       -0.25045465
 C            1.94810187       -2.51998746       -1.23675494
 C            0.71897134       -3.23020146       -1.52783601
 C            2.75328636       -0.20984276       -1.26510608
 C            2.24664439       -1.37972265       -1.96301334
 C            2.05943928        2.13737685       -1.37564412
 C            2.36868837        0.96026610       -2.03873010
 C            0.15231169        3.21568408       -0.51485747
 C            0.86855646        2.88734729       -1.74356762
 C           -1.71602081        2.53351210        0.83449101
 C           -2.61841119        1.39417804        0.86799424
 C           -1.21148471        2.94045233       -0.39699655
 C           -2.61741715       -0.68967810       -0.35463707
 C           -2.84666215        0.69698097       -0.31438590
 C           -1.51133470       -2.49985326       -1.51425313
 C           -0.30036571       -2.56662623       -2.31663275
 C           -2.26661013       -1.33000151       -1.55604034
 C            1.32557068       -0.91905961       -2.99611169
 C            1.53848467        0.51557604       -3.14853979
 C            0.03631057       -1.46070981       -3.09258575
 C            0.15314587        2.53530923       -2.87998469
 C            0.50159267        1.32000270       -3.60551487
 C           -1.94439758        2.61054768       -1.53654502
 C           -2.81212550        1.44132144       -1.48831360
 C           -1.29200167        2.62518810       -2.83291133
 C           -2.22767067       -0.60599396       -2.74355769
 C           -1.01070068       -0.65936216       -3.54206269
 C           -0.73162359        0.68188277       -4.01861182
 C           -2.70685986        0.75514311       -2.75351663
 C           -1.83750899        1.53403033       -3.61968682
