58
Modified xyz file
 C            1.38137114       -0.06037500        4.73877989
 C            0.53459444       -1.23397100        4.82429248
 C            1.21492941       -2.31266252        4.12992658
 C            2.50121395       -0.37812332        3.86407200
 C            2.37650058       -1.75435562        3.45309402
 C            2.53943374        0.63038399        2.82998312
 C            0.61272198        0.98992074        4.09279349
 C            1.45786656        1.57193686        3.07840600
 C           -0.69445709       -0.94538235        4.10053442
 C           -0.65001735        0.43630840        3.65732576
 C            0.31695921       -2.80220143        3.10324457
 C           -0.87505197       -1.97602185        3.09605634
 C            2.24661161       -2.04098854        2.03189111
 C            1.07090990       -2.87796234        1.86956285
 C            2.78446870        0.26837934        1.50346654
 C            2.48123055       -1.03852233        1.07642534
 C            2.67741209        1.30566137        0.58797218
 C            0.85934607        2.13092863        1.95811449
 C            1.71374682        2.35148969        0.89179755
 C           -1.06889049        0.72416462        2.36122951
 C           -0.46937552        1.78352150        1.66465493
 C           -1.37411454       -1.60598357        1.85186783
 C           -1.71797075       -0.27346233        1.63034262
 C            0.37284004       -2.73701169        0.68526500
 C           -0.96739421       -2.34779674        0.74730973
 C            1.99033522       -1.25618917       -0.22862642
 C            1.09530953       -2.31565559       -0.41817285
 C            2.54081316        1.00968326       -0.82026058
 C            2.08291228       -0.24428000       -1.19901568
 C            1.15986745        2.80935998       -0.35622102
 C            1.93861989        2.18850552       -1.41334061
 C           -1.00249213        2.12623572        0.41437435
 C           -0.22025021        2.85972370       -0.49010495
 C           -2.22312497        0.05798430        0.37810624
 C           -2.07454126        1.36978760       -0.06765520
 C           -1.61551696       -2.11274586       -0.46335226
 C           -2.40558008       -0.96171206       -0.56060425
 C            0.46975692       -2.47909707       -1.64174582
 C           -0.97393396       -2.58176392       -1.60751726
 C            1.42280606       -0.38087537       -2.42870547
 C            0.78975516       -1.58048801       -2.72660839
 C            1.35543259        2.07850330       -2.66257648
 C            1.15777105        0.74794647       -3.21464514
 C           -0.71770771        3.13406854       -1.76102622
 C            0.13360882        2.83028124       -2.90139919
 C           -2.71964435        1.75923990       -1.23599219
 C           -2.06605926        2.72201493       -2.09696326
 C           -3.04222549       -0.65937541       -1.76476173
 C           -3.30070905        0.73415593       -2.08530750
 C           -1.46650768       -2.20628615       -2.91556107
 C           -0.35504725       -1.59048080       -3.62718739
 C           -2.59722381       -1.30687739       -2.98714389
 C           -0.03621003        0.79592047       -4.05255673
 C           -0.65918287        2.09864540       -3.87066566
 C           -2.04557541        2.17775166       -3.44659137
 C           -2.84907752        0.97126612       -3.44928894
 C           -0.82790371       -0.33911441       -4.18680013
 C           -2.26335925       -0.26400736       -3.94049129
