58
Modified xyz file
 C            1.45031863       -0.36459170        4.67828079
 C            0.50267296       -1.43757918        4.44637652
 C            1.00981060       -2.24569814        3.35214132
 C            2.54127812       -0.52752764        3.73233673
 C            2.18623267       -1.59683421        2.81251518
 C            2.81823959        0.78099213        3.18666103
 C            0.78928115        0.88867321        4.35255090
 C            1.71210472        1.65861711        3.55228185
 C           -0.74027190       -0.84125135        3.98794589
 C           -0.51213027        0.57556831        3.79276513
 C           -0.09525677       -2.47982676        2.45287700
 C           -1.19123032       -1.61090866        2.84310459
 C            0.16123329       -2.56936055        1.09672704
 C            2.24637590       -1.37141305        1.43294942
 C            1.37123459       -2.07585374        0.58767641
 C            2.99101801        0.89850165        1.75489700
 C            2.91107803       -0.23555315        0.94941294
 C            1.22642631        2.26515317        2.32673017
 C            2.25929444        2.07899492        1.33472118
 C           -0.89707735        1.12459279        2.57068330
 C           -0.09176055        2.07878818        1.92484441
 C           -1.86310517       -0.94766625        1.81609548
 C           -1.87093656        0.45042827        1.82959982
 C           -0.94312991       -2.52421556        0.26621288
 C           -1.94370791       -1.59573435        0.57906047
 C           -0.73597292       -2.88943840       -1.04867950
 C            1.51428680       -1.96669333       -0.80471981
 C            0.54070994       -2.53025608       -1.63498283
 C            2.93791563       -0.00778742       -0.42021138
 C            2.32843183       -0.96583727       -1.32231649
 C            1.90170677        2.16479396       -0.00341352
 C            2.56241616        1.31645902       -0.88732766
 C           -0.42007903        2.45232573        0.61944378
 C            0.60818448        2.58664399       -0.32895004
 C           -2.45517081        1.12151870        0.76565019
 C           -1.72920924        2.23938550        0.19651962
 C           -2.68262805       -0.99725535       -0.44693283
 C           -3.00195029        0.35398128       -0.33914648
 C           -1.77533495       -2.62767105       -2.01781506
 C           -2.76168369       -1.62165266       -1.69083224
 C            0.26007051       -1.92699240       -2.93170266
 C           -1.12723171       -2.22697779       -3.25263030
 C            1.90726385       -0.23548243       -2.51309302
 C            2.07328390        1.18766376       -2.24461075
 C            0.80122143       -0.67801738       -3.23665097
 C            0.29450848        2.75962249       -1.67873090
 C            1.10046555        2.07372882       -2.67921630
 C           -2.06845005        2.32316900       -1.21275657
 C           -2.95784872        1.20739937       -1.51683046
 C           -1.08967029        2.70679155       -2.11725862
 C           -2.96734328       -0.82047934       -2.88783142
 C           -1.95271086       -1.20463087       -3.86041800
 C           -2.95710114        0.62759291       -2.78089546
 C            0.08793216        0.23442637       -4.02260680
 C            0.22091326        1.65458143       -3.75132091
 C           -1.10736626        2.17313670       -3.46781207
 C           -1.31376008        0.00458895       -4.33309083
 C           -2.06379168        1.13506681       -3.80827718
