58
Modified xyz file
 C            0.98010667        0.11909060        4.06146595
 C            2.19388871       -0.15271612        3.32401384
 C            2.18957999       -1.57136111        3.02583834
 C            0.16262649       -1.09032926        4.03037148
 C            0.81207926       -2.00799497        3.12192457
 C           -1.19878158       -0.69227297        3.74666179
 C            0.13474163        1.20421549        3.61664690
 C           -1.22762793        0.75472900        3.81379358
 C            0.43418855        1.88865084        2.43538321
 C            2.40859929        0.53746153        2.06680190
 C            1.41964950        1.38646472        1.57009566
 C            2.85171903       -1.74859189        1.75262658
 C            3.03211613       -0.41996551        1.17135189
 C            2.37002121       -2.75195558        0.92735252
 C            0.16822275       -2.40162101        1.94710643
 C            0.94238088       -3.05654189        0.99492788
 C           -1.77646020       -1.06253483        2.46808907
 C           -0.99443229       -1.73230915        1.53277146
 C           -2.21424492        1.21059590        2.86316286
 C           -2.58007917        0.06262254        2.03420419
 C           -0.55549076        2.72087174        1.91984317
 C           -1.95246087        2.40692456        2.21698031
 C           -0.48597362        3.13160492        0.53043991
 C            1.28831835        1.53781086        0.18087000
 C            0.35739733        2.44613176       -0.34170199
 C            2.87025452       -0.26196796       -0.20258960
 C            2.13847280        0.82911764       -0.68112343
 C            2.72897520       -2.68580513       -0.47098111
 C            3.03409875       -1.38187609       -1.02050619
 C            0.45066031       -3.17075572       -0.36308314
 C            1.61327696       -3.21190938       -1.23047664
 C           -1.26864766       -1.56993294        0.16714691
 C           -0.65081349       -2.41735748       -0.75968138
 C           -2.79565921        0.26754561        0.67190094
 C           -2.16885496       -0.57404913       -0.26503772
 C           -2.71290544        2.68105409        1.02151887
 C           -1.84715272        3.41505878        0.12074110
 C           -3.21279218        1.54086631        0.28070220
 C           -2.24836347        3.05237777       -1.21872293
 C           -3.15888919        1.91585249       -1.11178849
 C            0.08704077        2.46634015       -1.71736590
 C           -1.22173993        2.66257528       -2.16116605
 C            2.02964400        1.00916517       -2.05811986
 C            0.96766436        1.84105445       -2.59138062
 C            2.50418683       -1.36646610       -2.37104654
 C            1.55668719       -2.47712935       -2.47777043
 C            2.18592240       -0.13993131       -2.93870987
 C           -0.84736600       -2.21414717       -2.12272548
 C            0.30239482       -2.24041770       -3.02173459
 C           -2.35388033       -0.33849973       -1.63840765
 C           -2.71995808        0.93237752       -2.07494444
 C           -1.82998805        1.63482779       -2.98127754
 C           -1.74159851       -1.16832947       -2.56999181
 C            0.42119643        1.16815424       -3.76257305
 C            1.13383528       -0.08351205       -3.93774806
 C            0.15398300       -1.15220832       -3.96670923
 C           -1.00442540        0.88182232       -3.79871878
 C           -1.15534344       -0.56287473       -3.75865097
