58
Modified xyz file
 C            1.51340935        0.01373125        4.13933468
 C            0.70952673       -1.17875747        3.93609219
 C            1.54652360       -2.14470085        3.26706412
 C            2.67448925       -0.09055531        3.27090276
 C            2.74304019       -1.45219821        2.79967734
 C            2.58729216        0.97272181        2.29164015
 C            0.73168412        1.15104464        3.69066269
 C            1.49778966        1.85401005        2.68461868
 C           -0.53148453       -0.77849574        3.29632910
 C           -0.57823024        0.67382902        3.31033998
 C           -0.98343099       -1.45237020        2.15551951
 C            1.00164511       -2.84865257        2.12660020
 C           -0.30471795       -2.59565965        1.70086863
 C            2.83951413       -1.69069751        1.37045103
 C            2.05775450       -2.88595733        1.13156455
 C            2.76272810        0.70044646        0.93373371
 C            2.72764822       -0.62634857        0.46981660
 C            2.45982146        1.73467959        0.05642409
 C            0.80330768        2.51249995        1.67510517
 C            1.48335498        2.72653620        0.47986081
 C           -1.20845703        1.30435364        2.25186912
 C           -0.59208343        2.40347667        1.64150287
 C           -1.89879249       -0.79631667        1.31663364
 C           -2.13408565        0.57133697        1.52203722
 C           -2.38262898       -1.43588750        0.16618931
 C           -0.69470048       -3.18566980        0.50373061
 C           -1.73997662       -2.57565592       -0.29363159
 C            1.70551516       -3.19022726       -0.17006762
 C            0.34515869       -3.63814291       -0.40727902
 C            2.33613641       -0.90653936       -0.84933167
 C            2.00886290       -2.21852469       -1.20687329
 C            2.21781672        1.44936138       -1.34179300
 C            2.10032768        0.12910179       -1.75853524
 C            0.75742251        3.17688183       -0.69546817
 C            1.28831534        2.45467048       -1.84143588
 C           -1.29318944        3.07641053        0.64164590
 C           -0.60771694        3.41467049       -0.59653566
 C           -3.01137148        1.27257974        0.70624738
 C           -2.62609612        2.60926861        0.29281973
 C           -3.12670986       -0.71836241       -0.76495340
 C           -3.59449124        0.60876413       -0.43564671
 C           -2.68067881       -0.70819235       -2.14968496
 C           -1.33988690       -2.63221812       -1.69382246
 C           -0.02203465       -3.23501356       -1.75214863
 C            1.07174340       -2.45315691       -2.29327037
 C           -1.62336584       -1.54291871       -2.51590136
 C            1.46607444       -0.14533624       -2.97049863
 C            0.76493212       -1.40354785       -3.14081802
 C           -0.63377269       -1.07619824       -3.38807644
 C            0.45706687        2.14388876       -2.91010463
 C            0.64737782        0.87983783       -3.59665455
 C           -0.66394269        0.30108678       -3.85183142
 C           -1.48431311        3.07035519       -1.70635585
 C           -2.77133423        2.68901855       -1.15124604
 C           -3.39790865        1.45961141       -1.59966450
 C           -2.74161706        0.66764575       -2.62425597
 C           -0.97478988        2.38167918       -2.80487760
 C           -1.66447133        1.20280320       -3.31851912
