58
Modified xyz file
 C            1.39179554       -0.08333936        4.08546139
 C            0.61528580       -1.23594297        3.68132730
 C            1.24758528       -1.83001106        2.51328814
 C            2.57721423       -0.04821614        3.25502336
 C            2.46596986       -1.09219439        2.24804689
 C            2.72175249        1.31400873        2.79122551
 C            0.60546159        1.09812355        3.76464173
 C            1.38968565        1.90746945        2.85781369
 C           -0.75551649       -0.79198316        3.54726937
 C           -0.69941381        0.64585451        3.33430925
 C           -1.56880813       -1.52293255        2.70233377
 C            0.42923673       -2.21138281        1.45619938
 C           -0.92417020       -2.39383019        1.72841907
 C            0.82392734       -1.95117607        0.13927425
 C            2.80508499       -0.76896581        0.93851827
 C            2.02873592       -1.26406526       -0.12561211
 C            3.44932441        1.50506473        1.63166553
 C            3.61353398        0.35698784        0.74743825
 C            3.06111219        2.61174775        0.78447064
 C            0.80306134        2.39461513        1.68647539
 C            1.64813343        2.94162105        0.71783453
 C           -1.25723046        1.16361470        2.16646424
 C           -0.47975006        1.96252821        1.30867081
 C           -2.59776795       -0.81489693        1.96838606
 C           -2.39387870        0.53036333        1.65937811
 C           -1.85554309       -2.55991426        0.63121571
 C           -3.01624253       -1.72745070        0.92242972
 C           -0.02151905       -2.32964241       -0.91479309
 C           -1.37666480       -2.61406135       -0.67087841
 C            0.44671177       -2.22332513       -2.21869120
 C            2.35832011       -0.90163722       -1.44481593
 C            1.52780233       -1.30338561       -2.48480796
 C            3.80923516        0.87414077       -0.58704993
 C            3.51866392        2.29914591       -0.55421148
 C            3.03367019        0.29824320       -1.65753227
 C            1.25452408        2.90379174       -0.68336182
 C            2.41357015        2.53733283       -1.46255584
 C            2.29885316        1.37374927       -2.30600076
 C           -0.90618154        2.17552106       -0.00750089
 C            0.03888483        2.32563537       -1.01370294
 C           -3.00679581        1.06016123        0.52987699
 C           -2.20682450        1.86704715       -0.36990512
 C           -3.76624622       -1.23143025       -0.13314075
 C           -3.86586157        0.21043528       -0.28218181
 C           -2.31836959       -2.52772739       -1.69850869
 C           -3.54880848       -1.79473487       -1.45355005
 C           -0.49306286       -2.05239463       -3.31184657
 C           -1.90451957       -2.19421797       -3.04255048
 C            0.96848432       -0.24737001       -3.31254095
 C            1.05310835        1.04132852       -2.81476000
 C           -0.09192635        1.58320904       -2.20037899
 C           -0.29470895       -0.70728792       -3.82557558
 C           -2.45169468        1.40289709       -1.72456965
 C           -3.61791235        0.53454863       -1.67723722
 C           -3.60471120       -0.70798782       -2.41924967
 C           -2.53943230       -0.92633687       -3.37518373
 C           -1.36118783        1.08388700       -2.54046619
 C           -1.47398004        0.05476805       -3.48429728
