58
Modified xyz file
 C            1.55191207        0.06060215        4.14970541
 C            0.74855592       -1.15123739        4.15226839
 C            1.46794055       -2.15588211        3.39426121
 C            2.62970262       -0.12514624        3.19417985
 C            2.66777329       -1.52888851        2.85687336
 C            2.45484085        0.83772060        2.11632788
 C            0.71705817        1.13992878        3.66100069
 C            1.33955202        1.69563898        2.47299474
 C           -0.59863949       -0.79641323        3.74276404
 C           -0.64215059        0.64411832        3.54004892
 C           -1.28171273       -1.61850148        2.85292498
 C            0.79268127       -2.83648590        2.29868562
 C           -0.56115422       -2.62485704        2.08067837
 C            2.75135674       -1.87950838        1.45811733
 C            1.69457114       -2.82936027        1.16380681
 C            2.58174090        0.42232219        0.78848943
 C            2.99687151       -0.88970210        0.51154637
 C            1.94215196        1.16913488       -0.21189675
 C            0.49999077        2.14133914        1.46303808
 C            0.93356154        2.08046823        0.13899674
 C           -1.42216875        1.15315184        2.50627701
 C           -0.86895552        2.16299025        1.71203360
 C           -2.27132976       -1.02351553        1.97432868
 C           -2.44179444        0.35616356        1.97307867
 C           -1.05662671       -2.58039672        0.71350450
 C           -2.21477081       -1.71061478        0.69270436
 C            1.19493640       -2.82709521       -0.13603274
 C           -0.16344696       -2.53571380       -0.34897686
 C            2.97495480       -1.32148568       -0.80772202
 C            2.10722253       -2.45005734       -1.11377284
 C            2.17719916        0.86053652       -1.55401120
 C            2.78117705       -0.35523406       -1.86593383
 C            1.52981809        1.58432479       -2.55425945
 C            0.13766791        2.67383495       -0.84795296
 C            0.43792967        2.47167131       -2.19571288
 C           -1.68477939        2.81318359        0.80152675
 C           -1.13234099        3.14538756       -0.50238667
 C           -3.22845186        0.88914334        0.95906135
 C           -3.01104620        2.27215838        0.59182161
 C           -2.51769544       -0.98177458       -0.45480124
 C           -3.33674895        0.13330346       -0.28201005
 C           -0.57972668       -1.95823202       -1.55657826
 C           -1.66557973       -1.06023474       -1.57368740
 C            1.64770927       -2.29416911       -2.47382443
 C            2.31377717       -1.12050257       -3.00949748
 C            0.23110741       -2.10364108       -2.67980780
 C            1.15606124        0.92357900       -3.79629745
 C            1.39196147       -0.49800631       -3.93160656
 C            0.10533744       -1.16973277       -3.77447243
 C           -0.64883150        2.25208683       -3.15046241
 C           -1.85121225       -0.18523154       -2.66645776
 C           -0.26649828        1.12147215       -3.96971966
 C           -0.91143860       -0.14903526       -3.69296033
 C           -2.20637272        3.02712824       -1.47125058
 C           -3.34409966        2.41476217       -0.81175280
 C           -3.49515235        1.07851272       -1.36287207
 C           -1.94748598        2.26301058       -2.66935872
 C           -2.60691040        0.97298124       -2.49496913
