58
Modified xyz file
 C            1.43622825       -0.01183686        3.84981739
 C            0.63165412       -1.19701022        3.61059932
 C            1.27177014       -1.96917514        2.57469203
 C            2.50814577        0.00065321        2.86920757
 C            2.42713087       -1.21613984        2.10335584
 C            2.43661378        1.24652389        2.15229103
 C            0.59789331        1.14893869        3.60221110
 C            1.24284743        1.95379172        2.59477185
 C           -0.72835619       -0.77297223        3.38757391
 C           -0.74114684        0.68346629        3.33762634
 C           -1.50956030       -1.45955872        2.46549824
 C            0.48279211       -2.61780734        1.62966766
 C           -0.90792044       -2.40267973        1.60581785
 C            1.13088340       -3.05538696        0.47472827
 C            2.66989775       -1.17959279        0.73348536
 C            2.30786302       -2.32423529        0.03252783
 C            2.73075138        1.26975282        0.79445225
 C            2.74102229        0.06235559        0.06034238
 C            2.40041535        2.45246686        0.14821203
 C            0.46774827        2.58752438        1.62747586
 C            1.16548660        3.11178812        0.53899238
 C           -1.49418184        1.30137906        2.34177259
 C           -0.88722840        2.23316576        1.47765428
 C           -2.67930005       -0.81499582        2.07184277
 C           -2.64876853        0.63132271        1.93426718
 C           -3.48875394       -1.35335313        1.00198024
 C           -1.65831130       -2.98963758        0.58172457
 C           -2.96767741       -2.46328106        0.23998597
 C            0.36804124       -3.43421661       -0.70275968
 C           -1.01111688       -3.30972231       -0.67595494
 C            2.31733931       -2.31724018       -1.40791981
 C            1.08600334       -2.94229656       -1.86650384
 C            2.74979781        0.09808432       -1.35315372
 C            2.44515522       -1.04921715       -2.08389790
 C            2.52823940        2.54166299       -1.28290053
 C            2.66097204        1.31469465       -2.02994483
 C            0.46715624        3.49349173       -0.67364718
 C            1.36625796        3.25621664       -1.79101724
 C           -1.59638170        2.69132195        0.36453201
 C           -0.87998589        3.19169462       -0.79658069
 C           -3.30020122        0.97051204        0.68043421
 C           -3.76842662       -0.26769021        0.07659718
 C           -2.72026957        1.92378488       -0.13780115
 C           -2.92443235       -2.05925444       -1.15888443
 C           -1.66025376       -2.50397042       -1.70031177
 C           -3.24452931       -0.65060869       -1.22374589
 C            0.42039351       -1.99895150       -2.74769538
 C            1.39819339       -0.98739899       -3.09400444
 C           -0.89056575       -1.62602938       -2.45972575
 C            1.76688676        1.40955962       -3.17296030
 C            0.87716159        2.53505837       -2.95015633
 C            0.95296161        0.25552949       -3.50733769
 C           -1.36850069        2.46646979       -1.96685061
 C           -2.40883153        1.56586326       -1.51214535
 C           -2.37465820        0.21975368       -1.87424015
 C           -1.27369830       -0.28093791       -2.58651901
 C           -0.48260603        2.02796205       -2.94100963
 C           -0.43804022        0.61040789       -3.26646925
