58
Modified xyz file
 C            1.28512902       -0.06557533        3.70541381
 C            2.50750922       -0.37912926        3.00604493
 C            2.42552566       -1.76251255        2.55937236
 C            0.44536681       -1.25367658        3.70699970
 C            1.13685612       -2.29520738        2.96966025
 C           -0.88982536       -0.85823459        3.28537175
 C            0.48254272        1.03829827        3.22572413
 C           -0.89722066        0.58975740        3.14279634
 C            0.96415613        1.88371206        2.23076891
 C            2.87860316        0.42741700        1.85729208
 C            2.07701072        1.50098318        1.45623217
 C            2.77861325       -1.78343126        1.14930430
 C            3.37130725       -0.49302050        0.84934422
 C            1.89488691       -2.36123903        0.23814486
 C            0.41394204       -3.06289615        2.06640009
 C            0.93284022       -3.24396215        0.71941906
 C           -1.57514507       -1.63605896        2.35771636
 C           -1.01784036       -2.84378069        1.93300662
 C           -2.60760833       -1.04727612        1.62968133
 C           -1.73951197        1.18767244        2.20585649
 C           -2.69012607        0.40497267        1.55132222
 C            0.05134488        2.79562530        1.71725379
 C           -1.34880116        2.40290301        1.64185167
 C            0.37685261        3.53638035        0.52029916
 C            2.25689030        2.01335640        0.16138883
 C            1.46551323        3.06221545       -0.30123384
 C            3.39633858       -0.07066866       -0.46597780
 C            3.03274985        1.30344140       -0.75483758
 C            1.77263320       -1.81082081       -1.04576360
 C            2.72981408       -0.88790426       -1.46347081
 C            0.58748453       -1.97385495       -1.78500309
 C           -0.18573193       -3.60658401       -0.12359414
 C           -1.40366627       -3.40904577        0.65147583
 C           -0.35383714       -2.92072640       -1.38647898
 C           -3.01255313       -1.59252185        0.34067752
 C           -2.34599770       -2.69175946       -0.18480796
 C           -1.76577553       -2.60922710       -1.51609391
 C           -3.11747640        0.75680136        0.20442219
 C           -3.35718774       -0.47938761       -0.52905540
 C           -1.84131940        2.78346989        0.32725803
 C           -0.81750027        3.59661182       -0.30712299
 C           -2.54801349        1.85782933       -0.43322116
 C            1.00506818        3.06263355       -1.68379206
 C           -0.43137899        3.29970576       -1.67415448
 C            2.68418987        1.34811738       -2.16368785
 C            2.44651209       -0.02375103       -2.59102516
 C            1.54963019        2.15259502       -2.58258947
 C            0.23150432       -1.05329002       -2.78095551
 C            1.13294360       -0.07575550       -3.19069190
 C            0.67006479        1.29432397       -3.36072270
 C           -2.13796229       -1.57463813       -2.36106462
 C           -3.05057752       -0.54593603       -1.88186197
 C           -1.10846522       -0.90805617       -3.13793931
 C           -2.42852662        1.87650759       -1.82404379
 C           -1.26840677        2.50197824       -2.44522221
 C           -0.69728066        1.54495428       -3.38220703
 C           -2.73797497        0.68226618       -2.58914315
 C           -1.60811252        0.41539902       -3.46473652
