58
Modified xyz file
 C            1.66999044        0.22837005        4.27631584
 C            0.83806122       -0.96073973        4.26042737
 C            1.52527554       -1.95702475        3.46307256
 C            2.68005739        0.07362871        3.24053000
 C            2.63918548       -1.29767877        2.79354834
 C            2.47414369        1.12727715        2.26376104
 C            0.83663555        1.35492639        3.90176000
 C            1.52032506        2.06232651        2.83941836
 C           -0.50850196       -0.56581752        3.87884137
 C           -0.50707548        0.86796959        3.63554417
 C           -1.24441726       -1.38857353        3.03838421
 C            0.77365950       -2.68106622        2.45249025
 C           -0.60355221       -2.52284752        2.38047599
 C            2.50598538       -1.55735999        1.37540929
 C            1.54163063       -2.62825323        1.22219687
 C            2.38339702        0.82242296        0.89943766
 C            2.47283256       -0.50612274        0.45639641
 C            1.86760434        1.79583547        0.03775423
 C            0.74210634        2.80076817        1.96836280
 C            1.14156856        2.85807899        0.57983506
 C           -1.19152729        1.39035982        2.53481475
 C           -0.69385331        2.55886978        1.95199913
 C           -2.15341657       -0.78429831        2.08182576
 C           -2.08245854        0.57995516        1.81673611
 C           -1.25350518       -2.70706898        1.09548810
 C           -2.31003754       -1.71584229        0.97627529
 C            0.88571335       -2.72098069        0.00204145
 C           -0.48842541       -2.99086077       -0.02957817
 C            2.06672614       -0.81178268       -0.84348516
 C            1.45644312       -2.05032100       -1.07605638
 C            1.74347683        1.52643196       -1.32780938
 C            1.92876678        0.21483854       -1.77821935
 C            1.04628464        2.44696424       -2.11660280
 C           -0.01171206        3.36168171       -0.13915986
 C           -1.17942468        2.99358408        0.65150994
 C           -0.03506385        3.19868536       -1.51325506
 C           -2.66909471        1.05059419        0.64373084
 C           -2.22126723        2.30030686        0.05418219
 C           -2.63430422       -1.23277721       -0.29120005
 C           -2.95266050        0.11719446       -0.43949390
 C           -1.14065720       -2.92850562       -1.25727162
 C           -2.22627436       -1.96643602       -1.40658031
 C            1.01265945       -2.37639208       -2.34951751
 C           -0.33957475       -2.87740195       -2.46722265
 C            1.71186860       -0.11388071       -3.11774559
 C            1.23341140       -1.44454704       -3.43707942
 C            0.59065232        2.08121787       -3.44089825
 C            0.98164825        0.79777568       -3.97548347
 C           -1.25724416        2.74917274       -2.16011531
 C           -2.25113479        2.15438356       -1.39311142
 C           -2.67903638        0.79576814       -1.69891320
 C           -0.86599618        2.12260812       -3.41089965
 C           -2.05143030       -1.29902848       -2.68894362
 C           -1.03407986       -2.03478730       -3.42241580
 C           -0.02545604       -1.30014980       -4.15742345
 C           -0.23491748        0.11420025       -4.38142939
 C           -2.08868184        0.09363556       -2.74797321
 C           -1.33532821        0.78071289       -3.70468141
