58
Modified xyz file
 C            1.35113596        0.00353975        4.04153669
 C            2.53020733       -0.17816237        3.22144068
 C            2.46688281       -1.50527569        2.62847362
 C            0.51823339       -1.17993158        3.89579303
 C            1.21879129       -2.12407429        3.04039307
 C           -0.81744074       -0.74537151        3.51664403
 C            0.51784962        1.16532777        3.80886037
 C           -0.84168074        0.70240329        3.58175400
 C            0.85309635        2.07936652        2.72907050
 C            2.80424074        0.76569114        2.15107489
 C            2.03419982        1.92312509        1.99891839
 C            2.75496665       -1.37472670        1.20700072
 C            3.15960169       -0.00471742        0.96762144
 C            1.92832273       -2.00206866        0.28434222
 C            0.48731254       -2.83377049        2.09812073
 C            0.99243705       -2.93254665        0.73888794
 C           -1.45599104       -1.37607933        2.45304368
 C           -0.93831810       -2.58161614        1.98157049
 C           -2.29887597       -0.63161894        1.62420122
 C           -1.37862402        1.43336861        2.44922716
 C           -0.37954608        2.39167158        2.01841751
 C           -2.08324654        0.74379449        1.47850397
 C           -0.29867703        2.74308627        0.67166353
 C            2.13771666        2.60690664        0.79165138
 C            0.93673780        3.19387054        0.22141370
 C            2.93745409        0.56682206       -0.27819488
 C            2.81837521        1.95330097       -0.31007138
 C            1.79887246       -1.45977046       -0.99621670
 C            2.34461501       -0.20201742       -1.29140520
 C            0.97031464       -2.09497828       -1.92196129
 C           -0.13703506       -3.29256703       -0.10406995
 C           -1.34948315       -3.07589415        0.67608817
 C           -0.10785412       -2.94350019       -1.44669838
 C           -3.02838293       -1.30431372        0.64729559
 C           -2.46600293       -2.51406120        0.07119010
 C           -3.62989703       -0.54091553       -0.43224206
 C           -2.21901299        1.33081902        0.22477272
 C           -1.21957794        2.19993742       -0.24409557
 C           -3.18186744        0.82213538       -0.63813140
 C           -1.05787069        2.41280262       -1.62778678
 C            1.17007311        3.34748570       -1.19722199
 C            2.38820073        2.61693556       -1.52273278
 C            0.14451235        2.91566660       -2.11722327
 C            2.11931156        0.36623343       -2.54878495
 C            2.12077339        1.80888882       -2.69170681
 C            0.80998096        2.18996867       -3.18542755
 C            0.47997856       -1.36763356       -3.07935296
 C            1.03742782       -0.13365410       -3.38108359
 C            0.16942408        0.99327822       -3.70247597
 C           -1.33099592       -2.52100679       -2.11262532
 C           -2.50187871       -2.36611419       -1.37457522
 C           -3.40620056       -1.26970632       -1.67118273
 C           -0.96437570       -1.54837674       -3.13650384
 C           -3.02562627        1.01202173       -2.06064747
 C           -1.85157971        1.71012391       -2.53118844
 C           -1.20224088        0.86547564       -3.52346636
 C           -3.04141480       -0.30183705       -2.68790313
 C           -1.78734927       -0.45774094       -3.40399560
