58
Modified xyz file
 C            1.18937643       -0.03596464        4.64753022
 C            0.36623020       -1.17520941        4.27678616
 C            1.15993648       -2.05022559        3.45068269
 C            2.43204626       -0.12710561        3.90000443
 C            2.41612633       -1.37210325        3.16057562
 C            2.59298895        1.10947888        3.16734983
 C            0.50099000        1.17196741        4.21705475
 C            1.41129015        1.93192775        3.40022199
 C           -0.86900382       -0.66603163        3.72490927
 C           -0.76471882        0.78103938        3.63778068
 C           -1.48141035       -1.32090727        2.66172498
 C            0.60021145       -2.48876914        2.18564317
 C           -0.72388089       -2.19248970        1.85054311
 C            2.57396936       -1.34814898        1.71345269
 C            1.61875705       -2.29224308        1.17294662
 C            2.80071790        1.06534251        1.72968862
 C            2.77999312       -0.14753166        1.03185801
 C            0.95209349        2.39985398        2.10413969
 C            2.04932382        2.17880275        1.18601414
 C           -1.23449308        1.39834633        2.47482818
 C           -0.34559724        2.12236897        1.65715909
 C           -2.53118666       -0.62089043        2.08082097
 C           -2.35505882        0.81217957        1.89648691
 C           -3.15453980       -1.14804428        0.89250154
 C           -1.10159444       -2.39631307        0.51481686
 C           -2.40976628       -2.11655813        0.12598907
 C            1.19906822       -2.12608790       -0.13525914
 C           -0.09952431       -2.50311529       -0.46007794
 C            2.49347834       -0.10075848       -0.33719990
 C            1.84555823       -1.18718413       -0.94066353
 C            1.75460647        2.14945859       -0.16110154
 C            2.35877934        1.15651803       -0.92160720
 C           -0.59034505        2.25132470        0.27749291
 C            0.48964755        2.57401352       -0.55199443
 C           -2.69745495        1.11439589        0.52387216
 C           -3.43137729       -0.02309814        0.01457758
 C           -1.74692771        1.70513603       -0.29339567
 C           -2.69691266       -1.84055240       -1.26743960
 C           -3.15579152       -0.45845967       -1.33658656
 C           -0.43435604       -2.56650669       -1.80836667
 C           -1.79831889       -2.27759521       -2.22680463
 C            1.48030284       -1.10061052       -2.28903977
 C            0.46547745       -1.93969030       -2.76466664
 C            2.21035788        1.23814302       -2.29726699
 C            1.86492487        0.02769867       -3.01943720
 C            0.27919499        2.74135460       -1.91574450
 C            1.34039194        2.28715102       -2.79700725
 C           -1.81985851        1.51925605       -1.68078915
 C           -2.50602443        0.40838162       -2.21019638
 C           -0.96959599        2.27306121       -2.48627102
 C           -1.71886265       -1.52516109       -3.46659969
 C           -0.33897447       -1.55375573       -3.91188560
 C           -2.12125085       -0.13231726       -3.43700599
 C            1.12166634        0.43349604       -4.20500970
 C            0.74052337        1.82458710       -4.03191124
 C           -0.70008097        1.85952064       -3.85333858
 C           -0.07713048       -0.28904658       -4.56681312
 C           -1.21399189        0.58767099       -4.30397225
