58
Modified xyz file
 C            1.14787007       -0.08522820        4.10497693
 C            2.36418571       -0.28998766        3.34228974
 C            2.25218704       -1.58595918        2.68975330
 C            0.31702438       -1.26496984        3.91707647
 C            0.87842356       -2.01486512        2.81166153
 C           -1.05352652       -0.82434111        3.82452577
 C            0.32231180        1.07696983        3.82771834
 C           -1.05859604        0.63303170        3.83769747
 C            0.72709297        2.00425470        2.87342788
 C            2.74048032        0.67949098        2.32728508
 C            1.97963535        1.82429317        2.14549822
 C            2.79769916       -1.45418472        1.35852280
 C            3.18045457       -0.06475711        1.16347770
 C            2.16600774       -2.09648321        0.30001814
 C            0.13935424       -2.19494596        1.64121680
 C            0.81819977       -2.46453942        0.44467832
 C           -1.83852720       -1.23483011        2.67853230
 C           -1.23988388       -1.92226246        1.61942845
 C           -1.95585924        1.06588488        2.77688171
 C           -2.69884319       -0.11253583        2.37051333
 C           -0.24782995        2.55056001        1.94107226
 C           -1.49731611        1.94380032        1.79419776
 C            1.78721674        2.33752042        0.79922645
 C            0.48618318        2.98500001        0.76607810
 C            3.03320118        0.46774371       -0.11638983
 C            2.21623098        1.59668408       -0.30533217
 C            2.65121359       -1.77901671       -0.96528800
 C            3.17999714       -0.43923247       -1.16053153
 C            1.89765384       -2.13518498       -2.15132548
 C            0.08254350       -2.85506617       -0.67060494
 C            0.60772791       -2.62576082       -2.00727832
 C           -1.94273527       -1.99833032        0.41201803
 C           -1.34309372       -2.58830107       -0.69842174
 C           -3.32181198       -0.10019257        1.13796013
 C           -3.09194342       -1.22163275        0.24512876
 C           -2.14281975        1.96904722        0.55257309
 C           -3.20273088        1.09180128        0.31962550
 C           -0.18029941        3.08262533       -0.44106405
 C           -1.56738104        2.65611470       -0.51847391
 C            1.64794823        1.86330009       -1.56210513
 C            0.48403624        2.62876777       -1.64922612
 C            2.87056559       -0.02835926       -2.50931151
 C            2.18703913       -1.13372984       -3.16431707
 C            2.06611672        1.15699949       -2.68781576
 C            1.09894904       -0.57615992       -3.94373829
 C            1.10321359        0.86414634       -3.73727916
 C           -0.47519796       -2.11083589       -2.83655203
 C           -1.69246903       -2.14480609       -2.04371706
 C           -0.25296966       -1.04986324       -3.71152814
 C           -3.46724040       -0.76702146       -1.08210876
 C           -3.52048898        0.68792225       -1.03998392
 C           -2.65011755       -1.15292470       -2.21481995
 C           -1.81666525        2.22420102       -1.88883185
 C           -0.55064873        2.26040862       -2.60431542
 C           -0.27286460        1.29545125       -3.56483909
 C           -1.12144240        0.11617755       -3.66616792
 C           -2.71725397        1.19553593       -2.13479291
 C           -2.31020714        0.05857555       -2.94690031
