58
Modified xyz file
 C            1.54906451        0.09953136        4.23179235
 C            0.71534869       -1.06256537        3.99559301
 C            1.52685600       -2.00437892        3.26039913
 C            2.62627896        0.06294569        3.25373977
 C            2.67021975       -1.27545828        2.72118199
 C            2.41483048        1.16692457        2.33699494
 C            0.75123730        1.27118333        3.93953589
 C            1.51598933        2.08518438        3.01578166
 C           -0.53077853       -0.61121105        3.39247651
 C           -0.56994610        0.83597556        3.51085429
 C           -0.97375561       -1.21506393        2.21524775
 C            0.91532581       -2.69430925        2.14700002
 C           -0.41890444       -2.44542500        1.83513273
 C            2.64171804       -1.45268382        1.28241728
 C            1.86878942       -2.65343517        1.05601835
 C            2.23059744        0.92395145        0.96813067
 C            2.41973844       -0.36435390        0.43816794
 C            1.62549834        1.91950458        0.18820100
 C            0.79837540        2.96795950        2.23556163
 C            1.12800189        3.05554667        0.82925840
 C           -1.19190879        1.58478839        2.51803788
 C           -0.64688807        2.84327767        2.25644464
 C           -1.66114362       -0.44221112        1.26847802
 C           -1.89072907        0.92005549        1.50011588
 C           -2.10209601       -1.03230269        0.07855850
 C           -0.88490863       -3.05665822        0.67869583
 C           -1.90878136       -2.39483958       -0.10314071
 C            1.36566257       -2.87759616       -0.21400561
 C            0.11858906       -3.49208614       -0.27505361
 C            2.00018190       -0.63909162       -0.86437687
 C            1.69487423       -1.96502680       -1.21859499
 C            1.25080687        1.64110437       -1.13447470
 C            1.62810246        0.41633132       -1.69922971
 C            0.33644538        2.47463345       -1.81059483
 C            0.02281998        3.77529677        0.23565272
 C           -1.12240155        3.60746800        1.12507464
 C           -0.40204654        3.40400630       -1.08938268
 C           -2.56295311        1.66873005        0.53150064
 C           -2.20975962        3.06350976        0.34336863
 C           -1.84184782        3.22622070       -1.04738694
 C           -2.44708850       -0.23174593       -1.01542319
 C           -2.77893032        1.10121211       -0.79168009
 C           -2.39423627        2.10337499       -1.77922834
 C           -2.15849157       -0.65640661       -2.32115122
 C           -1.81057796       -2.92215281       -1.45337320
 C           -0.53820990       -3.62560811       -1.55732071
 C           -1.88916221       -2.00107781       -2.56923558
 C            1.30806416       -2.26244573       -2.52389947
 C            0.15170544       -3.12032173       -2.72699674
 C           -0.81495883       -2.35490941       -3.48684651
 C            1.38965171        0.17269842       -3.04967535
 C            1.22254698       -1.19537850       -3.50032302
 C           -0.08203008       -1.29289614       -4.14673248
 C           -0.27313047        1.99903821       -2.96498466
 C           -1.69322738        1.67626371       -2.89615657
 C           -1.80441036        0.28824777       -3.28510230
 C            0.37769338        0.95417444       -3.72133109
 C           -0.66171119        0.03250077       -4.14371152
