58
Modified xyz file
 C            1.46431600       -0.03175242        4.09278483
 C            0.67857514       -1.24588617        3.98994436
 C            1.30948805       -2.11472032        3.00702945
 C            2.55562830       -0.13678291        3.14419328
 C            2.36731202       -1.35151485        2.36875140
 C            2.61772196        1.11755646        2.42455039
 C            0.62381988        1.07263606        3.65964852
 C            1.33255871        1.77550721        2.61230525
 C           -0.70332855       -0.85382652        3.78037383
 C           -0.68849173        0.54058580        3.36214397
 C           -1.53214104       -1.73806129        3.10527204
 C            0.49465534       -2.91753974        2.22485654
 C           -0.93290000       -2.91862279        2.49929862
 C            0.65906481       -2.89360689        0.77882094
 C            2.42944626       -1.26212806        0.97636676
 C            1.49034160       -1.94196439        0.18939666
 C            3.13243369        1.08582187        1.13997526
 C            3.12712417       -0.18865475        0.43003074
 C            2.65247716        2.07004494        0.19187443
 C            0.63701363        2.19719018        1.48138871
 C            1.38576638        2.61814521        0.38339894
 C           -1.31025731        0.89219272        2.16672691
 C           -0.70082011        1.80938986        1.29192293
 C           -2.48929350       -1.20943758        2.14821474
 C           -2.38380182        0.11789807        1.72653361
 C           -1.62228488       -3.17638385        1.24953977
 C           -0.63721440       -3.16393356        0.18294511
 C           -2.73579934       -2.25264369        1.16200142
 C           -0.96574066       -2.53573359       -1.01037236
 C            1.22843176       -1.52238619       -1.12505961
 C            0.04465360       -1.93730523       -1.76112427
 C            2.99465736        0.10738294       -0.98344874
 C            3.00649708        1.55684162       -1.11657876
 C            2.10887790       -0.63088861       -1.75835188
 C            2.41604784        2.12841590       -2.23355829
 C            0.72669073        3.17031207       -0.70505153
 C            1.34024656        3.08354167       -2.02340813
 C           -1.37685237        2.21251705        0.13109685
 C           -0.69407492        2.92198569       -0.85525008
 C           -3.09335151        0.51546084        0.60191353
 C           -2.56318652        1.57913556       -0.22980731
 C           -3.16047107       -1.87184513       -0.10113131
 C           -2.29548731       -2.16360921       -1.23614655
 C           -3.62828100       -0.51043153       -0.27561145
 C           -2.77205106        1.20959065       -1.62441437
 C           -2.60539022       -1.19146197       -2.27472344
 C           -3.35383918       -0.11986858       -1.64667900
 C           -0.29718249       -1.42946101       -3.00948917
 C           -1.61515566       -0.84851969       -3.18072788
 C            1.83914241       -0.16354172       -3.04280715
 C            2.01790402        1.25268649       -3.32161668
 C            0.63365500       -0.58127093       -3.71882373
 C            0.29202717        2.80266092       -2.98967388
 C           -0.94386574        2.59943772       -2.25289410
 C           -1.78912043        1.53204264       -2.55566736
 C           -1.39631709        0.55740716       -3.48337378
 C            0.76943047        1.75776896       -3.86952124
 C           -0.08930507        0.61962691       -4.11798772
