58
Modified xyz file
 C            1.55170063        0.10807816        4.14229774
 C            0.74558150       -1.09197034        3.99054941
 C            1.40694043       -1.94474089        3.01813667
 C            2.60911359        0.05244083        3.15052454
 C            2.67320008       -1.30791498        2.66527601
 C            2.38568071        1.10938771        2.17767615
 C            0.71068157        1.24211144        3.81905462
 C            1.26018557        1.89799510        2.64213986
 C           -0.62448150       -0.68146725        3.74685542
 C           -0.66250795        0.77567651        3.76424392
 C           -1.37320596       -1.37963174        2.80663416
 C            0.65331992       -2.57586047        2.02264258
 C           -0.72694228       -2.37176999        1.95685618
 C            1.31277702       -3.08181302        0.90472919
 C            3.16694967       -1.50307957        1.38781066
 C            2.67391983       -2.64569573        0.65220876
 C            2.49376026        0.79968574        0.82056705
 C            3.16028168       -0.36998855        0.46536863
 C            1.63095736        1.41171994       -0.09916530
 C            0.37547347        2.40903890        1.70521211
 C            0.73103159        2.38419276        0.35703381
 C           -1.52963798        1.44672421        2.91335197
 C           -0.97594027        2.46612439        2.03883465
 C           -2.36046912       -0.67828809        2.00098052
 C           -2.49015070        0.69734838        2.11794852
 C           -1.39254020       -2.34856660        0.66067314
 C           -2.37651414       -1.28235908        0.67787606
 C            0.62443211       -3.12527646       -0.37940586
 C           -0.65157692       -2.56773612       -0.49445616
 C            2.78273164       -2.32890234       -0.75516842
 C            3.01192492       -0.89759748       -0.87404603
 C            1.61873219       -2.88391048       -1.41752560
 C            1.57726606        0.96313971       -1.43425736
 C            2.26288429       -0.20317142       -1.81576446
 C            0.74323502        1.61465868       -2.36115721
 C           -0.09179684        3.04496656       -0.54789937
 C           -0.01429687        2.71219491       -1.95616345
 C           -1.94525350        2.68577908        0.98768780
 C           -2.76647962        1.48384665        0.92681955
 C           -1.49856126        3.22610531       -0.20729318
 C           -2.52071426       -0.48058961       -0.45040138
 C           -2.93173918        0.85317199       -0.30569151
 C           -1.03694628       -1.95152532       -1.69124846
 C           -2.00818438       -0.93464705       -1.67105087
 C            1.20839538       -2.26360841       -2.58255855
 C            1.77294699       -0.95762181       -2.87729116
 C           -0.20965278       -2.10484594       -2.80524390
 C            0.44690950        1.01107633       -3.58813210
 C            0.89226004       -0.33877675       -3.83811476
 C           -0.30264267       -1.17214937       -3.90964466
 C           -2.34892155       -0.26134757       -2.84455467
 C           -0.91183020        1.06028734       -4.09940833
 C           -1.44003637       -0.28614984       -3.97056461
 C           -1.34525770        2.91118194       -2.51182480
 C           -2.26860851        2.92862942       -1.39755287
 C           -3.00233439        1.67563788       -1.42841775
 C           -1.85904679        1.94495484       -3.45936420
 C           -2.81700287        1.10484760       -2.74662266
