58
Modified xyz file
 C            1.24402366       -0.05362183        3.68635434
 C            2.50734717       -0.35117191        3.05365533
 C            2.44142138       -1.71629500        2.55447636
 C            0.40689903       -1.24082336        3.58131725
 C            1.05964229       -2.15280322        2.66992613
 C           -0.93127769       -0.79122054        3.26631517
 C            0.46110278        1.05809888        3.18407688
 C           -0.92109794        0.66176892        3.35193053
 C            0.84133461        1.69788055        2.00179949
 C            2.94385856        0.48331128        1.95467280
 C            2.14259815        1.53556219        1.50324903
 C            3.07920901       -1.73929654        1.24688664
 C            3.57062539       -0.39573574        0.98192745
 C            2.47503284       -2.46003953        0.22462966
 C            0.38690308       -2.56933878        1.52471369
 C            1.14108082       -3.00216613        0.43469654
 C           -1.63477568       -1.39636864        2.22730874
 C           -0.97662513       -2.28180655        1.35776379
 C           -2.82427889       -0.79028609        1.82592423
 C           -1.89532804        1.36632473        2.66707062
 C           -3.01450307        0.61997064        2.12040155
 C           -0.13913074        2.34286477        1.23250566
 C           -1.47396407        2.31672757        1.65001489
 C            0.17458261        2.86546589       -0.02677262
 C            2.50045622        2.15161708        0.30905953
 C            1.48641540        2.81124299       -0.49060783
 C            3.69236717        0.04988319       -0.32753273
 C            3.38605248        1.44268586       -0.60144857
 C            2.53696331       -1.96732532       -1.14410767
 C            3.13187708       -0.74388807       -1.41464461
 C            0.51928758       -3.13357955       -0.86785476
 C            1.28063721       -2.30443126       -1.79248770
 C           -1.63627282       -2.74826209        0.21714677
 C           -0.86278678       -3.14075588       -0.95128204
 C           -3.35420969       -1.03226792        0.49696548
 C           -2.83482481       -2.07270513       -0.25360463
 C           -3.43557674        1.27946930        0.89709861
 C           -2.53630449        2.39277184        0.66028395
 C           -3.57539414        0.26421008       -0.13259467
 C           -0.84765853        3.12978914       -0.93911110
 C           -2.20267476        2.70155362       -0.64705693
 C           -0.61561642        2.86671063       -2.34719094
 C            1.74197312        2.49411778       -1.89297852
 C            2.80904952        1.51601168       -1.92976740
 C            2.48690689        0.16421690       -2.34829340
 C            0.65982443        2.30245787       -2.73786997
 C            0.61796213       -1.35956205       -2.57865540
 C            1.19798803       -0.10587460       -2.81150733
 C            0.40693788        0.96086429       -3.25083521
 C           -1.48363354       -2.54062205       -2.11692656
 C           -2.71508673       -1.89956884       -1.68892553
 C           -0.72328475       -1.57481964       -2.89292816
 C           -3.06663118        0.51682529       -1.40711346
 C           -2.60773793        1.79795519       -1.71700064
 C           -1.66437735        1.97199783       -2.80836499
 C           -1.03226513        0.79935332       -3.38281244
 C           -2.72940588       -0.55387714       -2.23641509
 C           -1.59563688       -0.44319592       -3.14548018
