58
Modified xyz file
 C            1.03809996        0.04309300        4.08560640
 C            2.33967592       -0.33376494        3.58733420
 C            2.24154237       -1.72056250        3.15133235
 C            0.20902565       -1.14859100        4.01135654
 C            0.82841869       -2.00366045        3.02245531
 C           -1.13617349       -0.69940237        3.76784554
 C            0.30872116        1.08296749        3.38775903
 C           -1.08267320        0.74465502        3.56990708
 C            0.74278657        1.49189407        2.12557424
 C            2.88861430        0.40380004        2.47032327
 C            2.08559649        1.30122041        1.76157871
 C            3.07734146       -1.85967740        1.98463062
 C            3.67469698       -0.55858433        1.72388386
 C            2.46147079       -2.27456611        0.74498223
 C            0.25244186       -2.10386144        1.74687981
 C            1.06631353       -2.28697744        0.62010661
 C           -1.83364350       -1.22589295        2.61656978
 C           -1.11267786       -1.83262163        1.58010964
 C           -2.01148103        1.04328602        2.50184732
 C           -2.76153428       -0.17590786        2.27177693
 C           -0.19454643        1.93803318        1.17330583
 C           -1.57434744        1.75142783        1.38601623
 C            0.25342733        2.48908126       -0.03563531
 C            2.51387531        1.69362983        0.49853327
 C            1.58019424        2.32151017       -0.41165100
 C            3.75971127       -0.40872835        0.28186485
 C            3.24787077       -1.64385967       -0.29534297
 C            3.36953668        0.80244661       -0.27692640
 C            2.71503784       -1.61891135       -1.57074025
 C            0.51481367       -2.20963796       -0.66359021
 C            1.38796604       -2.17179000       -1.75413836
 C           -1.67467333       -1.81949825        0.29689291
 C           -0.83890488       -1.87639357       -0.83091918
 C           -3.42014809       -0.29083407        1.06853644
 C           -2.98334235       -1.34523005        0.17331234
 C           -2.45041554        1.81590388        0.30069997
 C           -3.49663732        0.88868024        0.23296378
 C           -0.66148342        2.79775472       -1.03899411
 C           -2.06901939        2.52704799       -0.83121650
 C           -0.33808620        2.44359826       -2.41554558
 C            1.87663215        1.85179459       -1.75660751
 C            2.90376151        0.82426284       -1.65341419
 C            2.74503716       -0.37779824       -2.32930568
 C            0.82791627        1.72365315       -2.66658882
 C            0.92609519       -1.67379819       -3.02682328
 C            1.70923333       -0.48336265       -3.33670836
 C            0.77102460        0.61261700       -3.51312385
 C           -1.34392835       -1.58839584       -2.11797021
 C           -0.46337261       -1.31958765       -3.15938306
 C           -0.51182959       -0.01226308       -3.79249352
 C           -3.50578745       -0.99496629       -1.12949020
 C           -3.95015478        0.39175673       -1.05151428
 C           -2.63802217       -1.10396755       -2.27353577
 C           -2.65709610        2.22076503       -2.12783459
 C           -1.57224778        2.06307897       -3.08191928
 C           -1.67225720        0.73625487       -3.66394100
 C           -3.52473063        1.06863836       -2.25673847
 C           -2.83766471        0.09024163       -3.08189318
