58
Modified xyz file
 C            1.15939498        0.11945683        4.13018412
 C            2.35465653       -0.00853859        3.32207714
 C            2.41321954       -1.38497353        2.87635751
 C            0.33549264       -1.05875406        3.88204434
 C            1.07462658       -1.93295607        3.00416448
 C           -0.96772145       -0.60260287        3.46057006
 C            0.32196555        1.28268547        3.93178963
 C           -1.04306858        0.80938263        3.79214756
 C            0.57805456        2.14525979        2.79295081
 C            2.50079420        0.82591941        2.14044496
 C            1.52550862        1.77396078        1.83231262
 C            3.01952360       -1.39363342        1.55801916
 C            3.02555977       -0.01727654        1.07803409
 C            2.61081098       -2.38560269        0.68183299
 C            0.47008802       -2.43791359        1.85725874
 C            1.32870187       -3.02704097        0.93549793
 C           -1.49082540       -1.03038169        2.24118791
 C           -0.75164878       -1.89241459        1.40999011
 C           -2.54299534       -0.29356338        1.70448618
 C           -1.71751397        1.69809451        2.86241002
 C           -0.71990809        2.63530172        2.36027992
 C           -2.62087182        1.13756123        1.97061649
 C           -0.84051722        3.13420174        1.07090671
 C            1.33014502        2.14250774        0.49958165
 C            0.30319124        3.03262139        0.18479683
 C            2.64929947        0.24603722       -0.23770291
 C            1.97534246        1.43884395       -0.52363489
 C            2.65503071       -2.11306919       -0.73920704
 C            2.67040182       -0.79244164       -1.17979882
 C            0.80808755       -3.48215631       -0.33073076
 C            1.73473893       -3.04525360       -1.36384686
 C           -1.21710191       -2.17326998        0.10803986
 C           -0.50937602       -3.04407444       -0.72118961
 C           -2.95054572       -0.50976558        0.33366123
 C           -2.26959634       -1.43556211       -0.44510032
 C           -2.87662261        1.80381091        0.70562282
 C           -2.01991536        2.81339562        0.28018521
 C           -3.30610893        0.78407788       -0.23483890
 C           -0.19842041        3.10674628       -1.17611856
 C           -1.63762385        2.89031099       -1.12322317
 C            1.75369172        1.80205034       -1.84977022
 C            0.55013519        2.53830754       -2.19580917
 C            2.29423858       -0.53702635       -2.49645625
 C            1.97830356        0.82053660       -2.89006385
 C            0.94892086       -2.58988836       -2.49665778
 C           -0.45228564       -2.77570194       -2.14761056
 C            1.34036720       -1.42583558       -3.14847345
 C           -2.43671990       -1.39304683       -1.83026764
 C           -1.41117617       -1.94086950       -2.69937275
 C           -3.13421387        0.99135387       -1.59737409
 C           -2.24672259        2.05288307       -2.05309403
 C           -2.91157257       -0.16568320       -2.44436902
 C           -0.11690142        1.81712795       -3.26922579
 C            0.79291814        0.78105384       -3.73276917
 C            0.33803290       -0.59907338       -3.79980416
 C           -1.01122714       -0.88608174       -3.62151738
 C           -1.47826128        1.54452580       -3.17969941
 C           -1.96178042        0.20643663       -3.47972451
