58
Modified xyz file
 C            1.34971557        0.04639757        4.16100030
 C            0.56765228       -1.15118458        3.90531164
 C            1.43329356       -2.09718854        3.24414664
 C            2.57683113       -0.05690053        3.38829671
 C            2.66301376       -1.40424521        2.88113311
 C            2.59260694        1.03554165        2.43788907
 C            0.60060081        1.18006816        3.64881826
 C            1.43544723        1.87889057        2.70177709
 C           -0.65710990       -0.75305944        3.23365658
 C           -0.67353783        0.69862195        3.17871773
 C           -1.10971726       -1.46351625        2.11455531
 C            0.93907832       -2.75019745        2.05181783
 C           -0.38244372       -2.57237511        1.64986743
 C            2.86707452       -1.59547640        1.45729771
 C            1.97713338       -2.66533056        1.04047962
 C            2.95757670        0.81296038        1.10794909
 C            3.04263237       -0.50163527        0.61059882
 C            2.73657166        1.87245350        0.22782835
 C            0.83749403        2.50696736        1.61409884
 C            1.68550060        2.81978156        0.56048179
 C           -1.22390952        1.28274662        2.05184127
 C           -0.52643991        2.27690090        1.34689229
 C           -2.02636664       -0.82766734        1.26180725
 C           -2.19257562        0.55945551        1.38094928
 C           -2.53765273       -1.51230332        0.14984547
 C           -0.71924394       -3.12884063        0.42380420
 C           -1.90704157       -2.67662766       -0.26957895
 C            1.59435970       -2.75491045       -0.29583104
 C            0.33625101       -3.29123540       -0.56738689
 C            2.94469732       -0.74121016       -0.75882893
 C            2.19542318       -1.90095057       -1.22611976
 C            2.68601324        1.64722362       -1.20557760
 C            2.69900382        0.34973496       -1.68356325
 C            1.13248959        3.33022926       -0.66979893
 C            1.74006337        2.59412371       -1.76919557
 C           -1.11290879        2.79661208        0.17689942
 C           -0.30150853        3.28339053       -0.85170853
 C           -2.99275233        1.25386490        0.49413601
 C           -2.42352483        2.42795659       -0.14365555
 C           -3.36564191       -0.84994755       -0.75917706
 C           -3.75242412        0.51748979       -0.48858177
 C           -3.08247330       -0.95505805       -2.18776339
 C           -1.67484847       -2.86780128       -1.69013334
 C           -0.25616749       -3.11472559       -1.87917291
 C           -2.06688518       -1.80604110       -2.59436390
 C            1.49098514       -1.51026255       -2.44409249
 C            1.66982909       -0.08111421       -2.62044076
 C            0.26570985       -2.08001387       -2.74798785
 C           -0.84306805       -1.22047030       -3.13208644
 C            0.66069230        2.10197557       -2.60852127
 C           -0.52881312        2.83234651       -2.21709578
 C            0.56660350        0.73678860       -2.87198740
 C           -0.68598291        0.16972707       -3.13859511
 C           -2.81314536        2.38864667       -1.54369440
 C           -3.70059019        1.25591898       -1.73719322
 C           -3.09412991        0.38806732       -2.72975439
 C           -1.76638442        2.30864965       -2.54323549
 C           -1.82705643        0.97675783       -3.12677515
