58
Modified xyz file
 C            1.54709941        0.05545996        4.05706921
 C            0.72637337       -1.10900253        3.78524129
 C            1.32246451       -1.84404765        2.68148868
 C            2.62326318        0.07100967        3.08532707
 C            2.45812257       -1.07584202        2.20538418
 C            2.66372372        1.39533683        2.49329166
 C            0.72874011        1.23086833        3.81718088
 C            1.46401960        2.10608107        2.92314019
 C           -0.64436144       -0.65858667        3.63901040
 C           -0.59367884        0.77802895        3.41440512
 C           -1.48048680       -1.41796867        2.84081848
 C            0.47056590       -2.43245685        1.75267819
 C           -0.89016652       -2.49048342        2.05779801
 C            0.87053807       -2.51824514        0.41587267
 C            2.62528674       -0.89763293        0.83631221
 C            1.91377497       -1.70733591       -0.05295111
 C            3.08198524        1.50178310        1.17301261
 C            3.20451355        0.28859464        0.37857687
 C            2.50217842        2.52053102        0.31293249
 C            0.74313728        2.84699331        1.99574550
 C            1.35029647        3.18445410        0.71970983
 C           -1.17445880        1.32115283        2.26473327
 C           -0.64876480        2.49781736        1.73882971
 C           -2.38271750       -0.73310761        1.93953315
 C           -2.05058433        0.54640994        1.49544189
 C           -1.84406837       -2.81370816        1.01215855
 C           -2.82539818       -1.73054829        0.98337071
 C            0.04478144       -3.18848967       -0.49047569
 C           -1.36666588       -3.34574595       -0.17768933
 C            0.15799820       -2.92623749       -1.91669241
 C            2.10337242       -1.53616022       -1.42365994
 C            1.11017109       -2.02548961       -2.35986519
 C            3.07670815        0.66820714       -1.01850607
 C            2.61692458        2.04950669       -1.06049059
 C            2.57589821       -0.25716887       -1.92277679
 C            1.67153209        2.43659741       -2.00496356
 C            0.27009459        3.39346557       -0.22877069
 C           -0.95033084        2.86745807        0.37053839
 C            0.49935591        3.19076145       -1.58359003
 C           -2.38297988        0.93263001        0.18709609
 C           -1.79781227        2.06647893       -0.38788127
 C           -3.34699729       -1.30138349       -0.22704632
 C           -3.16965954        0.09079754       -0.60652496
 C           -2.12434198       -3.13975381       -1.39818863
 C           -1.18231194       -2.84352319       -2.46466910
 C           -3.15331060       -2.11730725       -1.41342369
 C           -3.03915444        0.13843497       -2.05473906
 C           -1.60204378       -1.60924862       -3.10640498
 C           -2.87752184       -1.22503163       -2.52509565
 C            0.69999532       -0.90012228       -3.19036498
 C            1.66400521        0.17236325       -2.97313621
 C            1.25407445        1.49832198       -3.03632799
 C           -0.65879902       -0.61544947       -3.36270557
 C           -0.61416759        2.77646817       -2.41593254
 C           -1.78873883        2.21213482       -1.77462815
 C           -2.23588103        1.11782521       -2.61300245
 C           -0.12448589        1.79392386       -3.37049424
 C           -1.09110658        0.71018121       -3.41570009
