58
Modified xyz file
 C            1.29534130       -0.02744636        4.09786111
 C            2.47717995       -0.22441532        3.28687514
 C            2.46032124       -1.59378752        2.79391118
 C            0.46604275       -1.21724187        3.97424064
 C            1.19481040       -2.19381315        3.18143312
 C           -0.85432094       -0.79432349        3.52891426
 C            0.45668224        1.12062161        3.82553385
 C           -0.90756470        0.63975282        3.68097890
 C            0.74184939        1.95509674        2.66735535
 C            2.70464204        0.64098421        2.14099974
 C            1.75835034        1.60775902        1.78289858
 C            2.82305222       -1.55337413        1.38355785
 C            3.27749168       -0.20187513        1.10821394
 C            2.01836706       -2.21052909        0.45070758
 C            0.49459094       -2.93200832        2.23892999
 C            1.07101242       -3.11943884        0.91758221
 C           -1.40564932       -1.38709558        2.39208439
 C           -0.91260989       -2.63776697        2.02628146
 C           -2.13165364       -0.61041952        1.46152814
 C           -1.52205708        1.40756726        2.62961573
 C           -0.53936765        2.35540000        2.12796791
 C           -2.32693978        0.76701284        1.69978918
 C           -0.63322474        2.72900715        0.79171479
 C            1.66501484        2.00815563        0.44663256
 C            0.50032381        2.63648958       -0.02570565
 C            3.24534434        0.25019364       -0.19558367
 C            2.60967117        1.52559475       -0.45961929
 C            1.94934211       -1.72251876       -0.86521847
 C            2.77105171       -0.65254467       -1.22585938
 C            0.94105109       -2.15591590       -1.74494709
 C           -0.01681638       -3.51995611        0.05466527
 C           -1.26068687       -3.20042971        0.74372851
 C           -0.09470541       -2.95182993       -1.27116652
 C           -2.58411504       -1.19542619        0.25736672
 C           -2.06942287       -2.41630051       -0.15727288
 C           -1.46207543       -2.50367880       -1.47423346
 C           -3.16547996       -0.40989752       -0.73250857
 C           -2.78505603        1.58108408        0.67355057
 C           -1.89648890        2.63451114        0.20906440
 C           -3.41352357        0.98637071       -0.47688085
 C           -2.04963988        2.75179950       -1.22870355
 C           -3.00970205        1.74339475       -1.65066130
 C            0.38639547        2.95445152       -1.38279723
 C           -0.92712887        2.98407195       -2.00900346
 C            2.32802903        1.55447620       -1.88079899
 C            2.42195129        0.17818574       -2.36317120
 C            1.31982273        2.38592409       -2.34225897
 C            0.69867414       -1.45869097       -2.92833736
 C            1.50073457       -0.30092264       -3.28009984
 C           -1.69856545       -1.48608200       -2.39547994
 C           -2.68570056       -0.53934463       -2.10376697
 C           -2.63464854        0.79714831       -2.68747747
 C           -0.68113479       -1.17377408       -3.29713822
 C           -0.82237951        2.32901370       -3.30367401
 C            0.57547034        2.00771107       -3.53052979
 C            0.64833111        0.63493885       -3.99353257
 C           -1.60885805        1.13140758       -3.56174553
 C           -0.70142580        0.09272325       -4.00581087
