58
Modified xyz file
 C            1.29620480        0.16809004        4.06348199
 C            2.43363320       -0.05464336        3.19574976
 C            2.40728256       -1.44977091        2.79528094
 C            0.46745448       -1.02966627        4.02341348
 C            1.08011430       -1.95948644        3.08966609
 C           -0.90727325       -0.61607507        3.81024309
 C            0.44092264        1.30386982        3.79611099
 C           -0.93429448        0.83322604        3.81397100
 C            0.62507092        2.05859425        2.56587742
 C            2.56631878        0.73412891        1.98173313
 C            1.59069895        1.67285816        1.63656530
 C            2.88654897       -1.52113422        1.42877291
 C            3.07717371       -0.15782644        0.95519789
 C            2.29256833       -2.43467165        0.57386099
 C            0.31928992       -2.50354270        2.05417772
 C            0.96133882       -2.93741514        0.89339461
 C           -1.67822525       -1.29582255        2.87793288
 C           -1.06386844       -2.31742448        2.03850843
 C           -2.62866452       -0.56182906        2.05231817
 C           -1.64279106        1.52386409        2.75193063
 C           -0.69771427        2.41177363        2.09135809
 C           -2.56206312        0.83420496        1.96640506
 C           -0.87881877        2.67821834        0.74049853
 C            1.39128065        1.97505898        0.28714994
 C            0.22882671        2.65381516       -0.10818049
 C            2.80340087        0.13775321       -0.37547660
 C            2.20633612        1.36194460       -0.67059384
 C            2.32384494       -2.16693091       -0.85141174
 C            2.71113985       -0.90653964       -1.30058983
 C            0.21380116       -3.02504124       -0.35352613
 C            1.15017360       -2.79227661       -1.43670766
 C           -1.78118370       -2.33683784        0.77013757
 C           -2.85353866       -1.36164089        0.85422923
 C           -1.07060715       -2.49261494       -0.41758384
 C           -3.29818612       -0.74642268       -0.30309680
 C           -3.00666355        1.46628657        0.80853604
 C           -2.14933023        2.47353142        0.20328395
 C           -3.57856557        0.67412292       -0.26405691
 C           -2.32884375        2.41087814       -1.23975952
 C           -3.15516543        1.25450507       -1.52746281
 C            0.03777993        2.97045780       -1.45013037
 C           -1.24245052        2.66326508       -2.06303366
 C            2.15504691        1.77903776       -1.99427052
 C            1.06719307        2.63534276       -2.41562660
 C            2.50278413       -0.60152923       -2.64349506
 C            2.35857215        0.78965098       -3.03495079
 C            0.67634239       -2.30598288       -2.64372553
 C            1.50970744       -1.36799972       -3.37867167
 C           -1.52228699       -1.88170842       -1.59543561
 C           -2.62864493       -1.03310603       -1.56143722
 C           -2.60261333        0.19212032       -2.34805158
 C           -0.69576528       -1.82924187       -2.71851913
 C           -0.96779190        1.75583070       -3.16723780
 C            0.41490850        1.99523562       -3.54887334
 C            1.24151673        0.88193160       -3.96376745
 C            0.63565682       -0.42878410       -4.05863805
 C           -1.48962114        0.45551856       -3.14255418
 C           -0.70796094       -0.62915018       -3.54292111
