58
Modified xyz file
 C            1.54483922        0.02041946        3.91758770
 C            0.72169208       -1.16858020        3.81908966
 C            1.27573459       -2.01960255        2.78119780
 C            2.57985743       -0.07181098        2.90228385
 C            2.40591818       -1.31451600        2.18817517
 C            2.55074376        1.15055503        2.13783570
 C            0.70461702        1.15925088        3.58651660
 C            1.37255751        1.90195153        2.54853368
 C           -0.65424891       -0.73790159        3.68354697
 C           -0.62739626        0.67018460        3.31591012
 C           -1.52158634       -1.57256737        3.00157601
 C            0.39778665       -2.71461721        1.94921717
 C           -0.96941764       -2.68646773        2.23895606
 C            0.82998222       -3.06300666        0.66797761
 C            2.54759290       -1.32059179        0.80463344
 C            1.99364193       -2.39157778        0.11066762
 C            2.84126912        1.10647248        0.77731477
 C            2.86648488       -0.13545612        0.11777252
 C            2.51459608        2.25115920        0.05382398
 C            0.61903279        2.50096138        1.54849282
 C            1.35907154        3.01444101        0.49264153
 C           -1.28011912        1.07946335        2.15149610
 C           -0.69219748        2.04193346        1.30446213
 C           -2.54687081       -0.97214936        2.17181581
 C           -2.37819429        0.33390302        1.71199769
 C           -1.93573956       -3.01307483        1.20294866
 C           -2.97229732       -1.99408323        1.23489452
 C           -0.12704611       -3.25617925       -0.41617417
 C           -1.48362175       -3.14472734       -0.16749619
 C            1.81599019       -2.31437866       -1.32625545
 C            0.42582763       -2.64154838       -1.60893550
 C            2.98950492       -0.17009880       -1.27480281
 C            2.41931272       -1.28118966       -2.02254413
 C            2.51376422        2.23062565       -1.39607890
 C            2.77799257        1.04011588       -2.05447162
 C            0.67917773        3.51688728       -0.67332484
 C            1.41604669        3.07397678       -1.84737525
 C           -1.37638974        2.45524198        0.14619014
 C           -0.70741743        3.16172385       -0.85536677
 C           -3.07991318        0.74041643        0.58290328
 C           -2.60359187        1.88081411       -0.17290863
 C           -3.25598876       -1.59541555       -0.12812713
 C           -2.28531543       -2.25609308       -0.99354409
 C           -3.55580009       -0.26271990       -0.36574694
 C           -0.34930603       -1.76619646       -2.37156525
 C           -1.69006344       -1.53753071       -2.03544584
 C            1.72852306       -0.73670263       -3.17689786
 C            1.99588565        0.68927215       -3.22923181
 C            0.29148574       -0.92849926       -3.28437516
 C            0.45276234        2.55163267       -2.80338486
 C           -0.87371054        2.76464166       -2.24610755
 C            0.73522084        1.37058427       -3.48041959
 C           -0.29765350        0.35490876       -3.62463055
 C           -2.92468276        1.64144278       -1.57098514
 C           -3.32914917        0.25420227       -1.69868470
 C           -2.34820990       -0.41166222       -2.53456837
 C           -1.90494546        1.89586938       -2.57259253
 C           -1.59603931        0.62589403       -3.21841751
