58
Modified xyz file
 C            1.51692296        0.04958659        4.12349211
 C            0.69867563       -1.13010066        3.90319102
 C            1.30189111       -1.88772105        2.81826482
 C            2.62330944       -0.01306591        3.19004722
 C            2.63592216       -1.34586018        2.61602701
 C            2.51997887        1.11467850        2.27590374
 C            0.71316501        1.20188072        3.76909295
 C            1.27233575        1.79538692        2.56269175
 C           -0.67488397       -0.68871182        3.75666193
 C           -0.67091490        0.77148108        3.74129280
 C           -1.48690553       -1.37209481        2.85964349
 C            0.51755596       -2.22701807        1.71095919
 C           -0.86627031       -2.20901586        1.83790069
 C            1.09948396       -2.28591768        0.43893877
 C            3.20902878       -1.48050961        1.36584000
 C            2.48999756       -2.23544716        0.36034819
 C            2.88508366        0.90049057        0.95421054
 C            3.60490623       -0.26408558        0.68490156
 C            2.11897186        1.47900442       -0.06645969
 C            0.40802468        2.11961514        1.51930845
 C            0.80663415        1.90147057        0.19350791
 C           -1.52573170        1.43437105        2.87375514
 C           -0.94347279        2.25048062        1.81641237
 C           -2.59623163       -0.67584162        2.23356292
 C           -2.63822079        0.71278622        2.28352343
 C           -1.68687824       -2.13688135        0.64640959
 C           -2.86618295       -1.35195609        0.97479543
 C            0.31508922       -2.06136517       -0.71226930
 C           -1.08259930       -1.97301506       -0.59739271
 C            0.92162474       -1.92334945       -1.97576152
 C            3.12422549       -1.89897959       -0.89510622
 C            3.84895558       -0.64815071       -0.68641860
 C            2.29799720       -1.72583762       -2.06371761
 C            2.55533509        1.35893022       -1.38183573
 C            3.44851472        0.26815814       -1.72962591
 C            2.76959993       -0.52716550       -2.72915356
 C            1.59883442        1.47654738       -2.46348136
 C            1.77365844        0.31929915       -3.34085668
 C           -0.11611970        2.06704251       -0.86265598
 C            0.30462341        1.92161104       -2.19833471
 C           -1.90529882        2.31458036        0.74192269
 C           -3.02479122        1.44935090        1.09544841
 C           -1.46700007        2.34328013       -0.57652564
 C           -3.50704369       -0.66257289       -0.04398392
 C           -3.68557339        0.78093916        0.07553066
 C           -1.85582654       -1.50314969       -1.66412198
 C           -3.10602096       -0.92870713       -1.41322416
 C            0.15927866       -1.47228727       -3.05426228
 C            0.62792094       -0.30460006       -3.79998172
 C           -1.27923426       -1.36053533       -2.92152027
 C           -0.64160284        1.72540653       -3.20560619
 C           -0.52038486        0.53931931       -4.02949148
 C           -1.69745430       -0.26460953       -3.78178156
 C           -2.43996351        2.17892294       -1.55999277
 C           -3.58406499        1.33661189       -1.26123213
 C           -3.53251315        0.22258617       -2.18678852
 C           -2.04719693        1.88055981       -2.91516581
 C           -2.71916431        0.64417439       -3.30683681
