58
Modified xyz file
 C            1.51129730        0.01513051        3.93774992
 C            0.71942710       -1.18620759        3.74599630
 C            1.34458525       -1.96719749        2.69225336
 C            2.64763669       -0.06624810        3.04056709
 C            2.66401950       -1.39899674        2.46450008
 C            2.59408469        1.06736176        2.13078591
 C            0.69823307        1.13958689        3.51532852
 C            1.33871782        1.75580126        2.36752010
 C           -0.65906946       -0.77736669        3.56609171
 C           -0.66527294        0.66517400        3.36311565
 C           -1.45935714       -1.55130987        2.73993646
 C            0.56454545       -2.37114766        1.60493451
 C           -0.81718573       -2.42065796        1.75877254
 C            1.11535484       -2.36641662        0.31968102
 C            3.23189015       -1.53784019        1.21067854
 C            2.49929120       -2.27597578        0.20009511
 C            3.01420326        0.86568358        0.82067963
 C            3.67564147       -0.33266408        0.53891958
 C            2.37065032        1.55410841       -0.21655530
 C            0.54406665        2.09754691        1.28236732
 C            1.09479660        2.10907079       -0.00311158
 C           -1.43400803        1.18322912        2.32437752
 C           -0.84139012        2.08849309        1.43637556
 C           -2.57243878       -0.91203780        2.06544361
 C           -2.56662893        0.47278144        1.91911738
 C           -1.66430165       -2.45399042        0.58052202
 C           -2.88862936       -1.74076880        0.91745005
 C            0.29204209       -2.13523247       -0.79680369
 C           -1.09376479       -2.28769480       -0.67889511
 C            0.83191202       -1.65359040       -2.00256533
 C            3.08691632       -1.90523975       -1.07204822
 C            3.90599676       -0.72044070       -0.83632739
 C            2.21291911       -1.60699163       -2.18434449
 C            2.87600541        1.43698008       -1.51234238
 C            3.60263962        0.23540233       -1.87661543
 C            2.79138881       -0.45911968       -2.85892669
 C            2.02264539        1.74221403       -2.63854187
 C            1.89447074        0.52332137       -3.42765566
 C            0.30895689        2.54812350       -1.08339978
 C            0.68603676        2.23102441       -2.38162420
 C           -1.61503651        2.66825639        0.44450604
 C           -1.04383810        2.81217843       -0.88104333
 C           -3.42626728        1.04585846        0.98733246
 C           -2.99514688        2.24326466        0.29269011
 C           -3.66190222       -1.20015890       -0.09957217
 C           -4.08734587        0.18604783        0.01646711
 C           -1.91227917       -1.91823213       -1.74210907
 C           -3.25581287       -1.42486521       -1.47462070
 C            0.01375748       -0.96616073       -2.90602001
 C            0.48148401        0.20996610       -3.48330861
 C           -0.22786677        1.43899435       -3.18877765
 C           -1.36103410       -1.10301161       -2.80458808
 C           -2.00244797        2.26689991       -1.83186520
 C           -3.25612478        2.06000951       -1.12611166
 C           -3.96607129        0.80835033       -1.29208583
 C           -3.42733770       -0.17749471       -2.20527978
 C           -1.55724138        1.34774007       -2.78529541
 C           -2.17781293        0.09845896       -2.89382060
