58
Modified xyz file
 C            1.43315026        0.14431000        4.25726157
 C            0.62596800       -1.03017167        3.99917815
 C            1.48045498       -1.96754257        3.30752911
 C            2.55472559        0.11031994        3.32895725
 C            2.62379594       -1.22428912        2.79014150
 C            2.38651844        1.22002428        2.41174858
 C            0.63433366        1.30138859        3.91432519
 C            1.44890987        2.12920698        3.04967462
 C           -0.60173872       -0.60372132        3.34005752
 C           -0.64474500        0.84536554        3.38888303
 C           -1.00882639       -1.25909461        2.18113580
 C            0.91585576       -2.68569394        2.18924142
 C           -0.42191133       -2.49076472        1.86124129
 C            2.62351034       -1.39557754        1.34943348
 C            1.87640230       -2.60927952        1.10592606
 C            2.27598178        0.99203906        1.03158653
 C            2.39877848       -0.30675422        0.50684987
 C            1.75274887        2.01712762        0.23379952
 C            0.77510701        3.01254409        2.23446314
 C            1.23139926        3.14856791        0.87098214
 C           -1.18272832        1.55773889        2.32010772
 C           -0.66100806        2.83301475        2.10793554
 C           -1.69724678       -0.54271580        1.19227916
 C           -1.74815851        0.86451148        1.23573192
 C           -2.24259770       -1.23898827        0.10770524
 C           -0.85149769       -3.15119534        0.72053859
 C           -1.93252966       -2.58475110       -0.05701930
 C            1.38485853       -2.83894994       -0.16854459
 C            0.17505800       -3.52400178       -0.23492239
 C            1.96412978       -0.57173676       -0.79495745
 C            1.66005290       -1.89644028       -1.16327734
 C            1.45039057        1.76820309       -1.11196607
 C            1.65871397        0.49515629       -1.64668998
 C            0.71414592        2.69780485       -1.85613768
 C            0.18502987        3.91709856        0.23190391
 C           -1.04838380        3.57130116        0.92844668
 C           -0.04430302        3.72294272       -1.17700842
 C           -2.24871443        1.58533410        0.13590284
 C           -1.90797918        2.92672995       -0.03461089
 C           -1.44382855        3.36628419       -1.33739663
 C           -2.79230747       -0.54180901       -0.96204564
 C           -2.74642046        0.90338796       -0.97033540
 C           -2.55721611       -0.99794618       -2.32657032
 C           -1.80558783       -3.13136437       -1.40174369
 C           -0.46991162       -3.69984563       -1.51799055
 C           -2.01375684       -2.25857972       -2.54211132
 C            1.26530856       -2.18760939       -2.46900768
 C            0.16395689       -3.11382231       -2.67987736
 C           -0.86371328       -2.40617917       -3.42115390
 C            1.26656005        0.25130571       -2.96287776
 C            1.09746132       -1.11143670       -3.41964670
 C           -0.24355923       -1.22201527       -3.98349897
 C           -0.15582122        2.21921838       -2.91249818
 C           -1.52033558        2.43168922       -2.44452133
 C           -2.35904413        1.33335529       -2.31113577
 C           -2.08621375        0.14373229       -3.09799091
 C            0.16712924        1.01793328       -3.51960187
 C           -0.89035149        0.06464011       -3.80782930
