58
Modified xyz file
 C            1.61601252       -0.02824989        3.84004827
 C            0.81001482       -1.22327171        3.70327003
 C            1.26800294       -1.95285473        2.53180111
 C            2.63154009       -0.06482904        2.80553982
 C            2.40370839       -1.23149687        1.98012290
 C            2.61980470        1.22251354        2.15026939
 C            0.75022690        1.10700123        3.56229761
 C            1.36587062        1.87323099        2.50669363
 C           -0.57660423       -0.80524014        3.73179002
 C           -0.58555685        0.59824122        3.34749081
 C           -1.49336010       -1.63828723        3.11861227
 C            0.29956811       -2.47668078        1.67604412
 C           -0.98126154       -2.64639540        2.20105409
 C            0.46567814       -2.33684695        0.28932568
 C            2.49685549       -1.07461944        0.60533390
 C            1.67512333       -1.84881803       -0.21424350
 C            3.00160815        1.28733248        0.81744508
 C            3.08998655        0.08749051        0.09272002
 C            2.61180040        2.43824261        0.14546236
 C            0.57847015        2.37695059        1.47439720
 C            1.27457564        2.94185527        0.40852138
 C           -1.29125533        0.97643745        2.20306435
 C           -0.69653479        1.82489477        1.24639387
 C           -2.60738944       -1.02833625        2.42554709
 C           -2.43242549        0.24206184        1.86867105
 C           -2.07296722       -3.00044839        1.31820825
 C           -3.17231512       -2.09661432        1.62241086
 C           -0.62465123       -2.48643187       -0.58273981
 C           -1.85113371       -2.93477680       -0.10755472
 C           -0.56487932       -1.93216515       -1.86295088
 C            1.85730311       -1.79888575       -1.59220952
 C            0.68444849       -1.74772425       -2.44612101
 C            3.41029790        0.12662492       -1.26436276
 C            2.84657695       -0.88616054       -2.13795807
 C            2.87552971        2.56089519       -1.27132004
 C            3.35595856        1.39252822       -1.97748296
 C            0.62216647        3.11336161       -0.87154449
 C            1.64325931        2.99816795       -1.90598564
 C           -1.34193215        2.04961625        0.01839974
 C           -0.61842017        2.52972207       -1.07686287
 C           -3.19959287        0.63144362        0.77559596
 C           -2.62365756        1.54253322       -0.19553570
 C           -3.82195055       -1.76094745        0.37518080
 C           -3.05560045       -2.38455286       -0.69548560
 C           -3.97552542       -0.35950822        0.04310191
 C           -1.67349016       -1.24183932       -2.37130097
 C           -2.98628409        1.06484631       -1.52480920
 C           -2.91523259       -1.41094896       -1.76203659
 C           -3.64248936       -0.21810830       -1.35927888
 C           -0.95021310        2.10137345       -2.36053662
 C           -1.46484360       -0.05208241       -3.06559782
 C           -2.04607916        1.17338809       -2.53611394
 C            0.87733280       -0.66428036       -3.39569243
 C            2.25183579       -0.21235123       -3.28204181
 C            2.51696819        1.20819631       -3.14999310
 C            1.39850514        2.13252451       -3.04687568
 C           -0.13794202        0.26752348       -3.56342521
 C            0.10455825        1.67475498       -3.26475377
