58
Modified xyz file
C          1.58798        0.00781        4.02139
C          0.77377       -1.16763        4.02514
C          1.27926       -2.09682        3.01116
C          2.51812       -0.05760        2.95444
C          2.41987       -1.38273        2.34397
C          2.44457        1.18135        2.15840
C          0.78113        1.16296        3.84823
C          1.30865        1.95033        2.71663
C         -0.61637       -0.74734        3.99730
C         -0.60745        0.72113        3.86943
C         -1.59090       -1.52814        3.22992
C          0.34209       -3.07577        2.29902
C         -1.15388       -2.70935        2.45860
C          0.72546       -3.21758        0.83112
C          2.83385       -1.58254        0.91798
C          1.91871       -2.59404        0.23596
C          2.82077        1.21469        0.69254
C          2.70337       -0.23173        0.11958
C          1.89853        2.09544       -0.18769
C          0.38747        2.75708        1.83321
C          0.78602        2.72924        0.34176
C         -1.54302        1.34419        2.94859
C         -1.08829        2.36927        2.02726
C         -2.68105       -0.85571        2.49240
C         -2.61811        0.58738        2.30445
C         -2.08216       -2.75578        1.32102
C         -2.99356       -1.65690        1.33950
C         -0.26040       -3.28288       -0.26959
C         -1.64662       -2.94328       -0.02861
C          1.71338       -2.53250       -1.20550
C          0.34326       -2.88990       -1.52866
C          2.90770       -0.36249       -1.35663
C          2.39674       -1.56302       -2.01081
C          2.23817        2.13891       -1.73069
C          2.70607        0.77430       -2.26295
C          1.12314        2.74834       -2.61824
C         -0.22854        3.30404       -0.57473
C         -0.05599        3.28926       -1.98803
C         -1.98736        2.29716        0.89339
C         -2.92663        1.19451        0.99896
C         -1.60524        2.85027       -0.35691
C         -3.15590       -1.09216       -0.01006
C         -2.28496       -1.90728       -0.87097
C         -3.39067        0.40168       -0.24589
C         -0.47492       -2.22123       -2.64547
C         -1.44456       -1.22841       -1.91483
C          1.84808       -1.18951       -3.27404
C          2.16852        0.18650       -3.50564
C          0.42401       -1.42944       -3.58148
C          0.57403        2.04058       -3.79754
C          1.06565        0.77223       -4.19340
C         -0.03627       -0.17033       -4.14942
C         -1.25432        2.76201       -2.60644
C         -2.16953        2.33029       -1.58791
C         -2.79729        0.93413       -1.62620
C         -2.20346       -0.11160       -2.68001
C         -0.86868        1.92631       -3.68074
C         -1.27219        0.51232       -3.74223

