58
Modified xyz file
 C            1.45014626       -0.26361437        4.26180407
 C            0.59722147       -1.43389229        4.16887462
 C            1.12954447       -2.28812153        3.12281342
 C            2.49241499       -0.39035193        3.25735267
 C            2.28132493       -1.62836873        2.53752664
 C            2.52063791        0.83971647        2.49347191
 C            0.65056243        0.89594646        3.90940662
 C            1.39325984        1.65849182        2.92593442
 C           -0.71712053       -0.99340826        3.73525058
 C           -0.67584032        0.44188605        3.54402232
 C            0.03174761       -2.64003430        2.24038621
 C           -1.10655562       -1.81547080        2.60761536
 C            0.29942274       -2.79358627        0.88382052
 C            2.37701798       -1.60993859        1.15159105
 C            1.58751775       -2.50166915        0.42479094
 C            2.80273347        0.77699847        1.13061403
 C            2.88934943       -0.47579020        0.50819186
 C            2.47756142        1.89454330        0.36477269
 C            0.68246377        2.35339408        1.95187019
 C            1.38880913        2.74297227        0.81882193
 C           -1.24370156        0.96876502        2.38999282
 C           -0.69603347        2.12944300        1.84222791
 C           -1.83066261       -1.23228071        1.57578872
 C           -2.04301347        0.15219223        1.58234409
 C           -0.76914078       -2.68614077       -0.00797293
 C           -1.87072271       -1.90425823        0.35869209
 C           -0.55041696       -2.99720727       -1.34687996
 C            1.89084249       -2.71239609       -0.91473762
 C            0.81928502       -3.06855727       -1.82674043
 C            3.10534646       -0.53387047       -0.86848016
 C            2.73532514       -1.74250964       -1.58677366
 C            2.38958503        1.79138443       -1.08289738
 C            2.71531014        0.59544830       -1.69690502
 C            0.66979205        3.21581899       -0.34880260
 C            1.19267258        2.50014458       -1.50392600
 C           -1.41504517        2.77861106        0.84425963
 C           -0.69789235        3.41580944       -0.25110623
 C           -2.73659862        0.73426486        0.51661820
 C           -2.56690059        2.10063060        0.27258693
 C           -2.76351931       -1.44812797       -0.60435998
 C           -3.28197234       -0.09785229       -0.46623384
 C           -1.32495864       -2.32724970       -2.37365429
 C           -2.50049383       -1.68734096       -2.01582826
 C            0.92335113       -2.20772612       -2.99614501
 C            2.06482974       -1.34200923       -2.81422295
 C            1.84683490        0.09026292       -2.74584391
 C           -0.37523670       -1.60235854       -3.20042996
 C            0.30283125        1.90727599       -2.40109713
 C            0.55621693        0.61257796       -2.87836838
 C           -0.49945292       -0.21684126       -3.30235258
 C           -1.50034518        3.26089216       -1.45131649
 C           -2.75528673        2.64396348       -1.06259537
 C           -0.95737270        2.47961672       -2.54916445
 C           -3.53849663        0.40596085       -1.80550046
 C           -2.85955332       -0.47687733       -2.73550564
 C           -1.79601803        0.28731950       -3.36614665
 C           -3.15106681        1.75972871       -2.13768596
 C           -2.04054053        1.68379056       -3.07976915
