58
Modified xyz file
 C            1.47080559        0.07709947        4.13920662
 C            0.68254463       -1.12589087        3.95420891
 C            1.51666994       -2.08562819        3.26720847
 C            2.65797130       -0.04488403        3.30739424
 C            2.68090615       -1.38036375        2.75473872
 C            2.66066183        1.07098689        2.38781789
 C            0.69410892        1.19590838        3.63477949
 C            1.53051274        1.92773265        2.70867743
 C           -0.57874194       -0.75058102        3.33509255
 C           -0.56737528        0.69021115        3.13779772
 C           -1.10837475       -1.55019608        2.32445256
 C            0.92957037       -2.80315580        2.15999864
 C           -0.44212120       -2.73297433        1.95769518
 C            2.68891321       -1.53613680        1.30751158
 C            1.77492701       -2.61585628        0.99369412
 C            2.94076664        0.85804596        1.04098970
 C            2.70028998       -0.41302551        0.48760024
 C            2.80211867        1.97328526        0.22588216
 C            0.92297716        2.59018553        1.64713960
 C            1.74946268        2.91458571        0.57394205
 C           -1.04455834        1.20617321        1.93686366
 C           -0.43302970        2.34163452        1.39287379
 C           -1.99113069       -0.95417130        1.41731362
 C           -1.85705783        0.40658251        1.12626026
 C           -2.71675357       -1.77030043        0.56117030
 C           -0.89812326       -3.41442882        0.83906583
 C           -2.22175912       -3.11284959        0.34475996
 C            1.14725549       -2.65755097       -0.25037645
 C           -0.00599196       -3.43677465       -0.31239421
 C            2.18239061       -0.53178991       -0.80852142
 C            1.27225112       -1.55441724       -1.11497173
 C            2.77764852        1.79384081       -1.20781879
 C            2.38515675        0.49893547       -1.71785415
 C            1.16757010        3.41606282       -0.65552776
 C            1.87485090        2.78786063       -1.76087508
 C           -1.03989001        2.95768346        0.30378327
 C           -0.21062613        3.56130703       -0.73113071
 C           -2.39355023        0.93875452       -0.05277008
 C           -2.14266062        2.27866002       -0.35585475
 C           -3.15897093       -1.24809068       -0.71955014
 C           -2.93970724        0.09094864       -1.02845672
 C           -2.20963988       -3.37173222       -1.08147886
 C           -0.81832241       -3.40856735       -1.50427215
 C           -2.82452400       -2.23564010       -1.73449020
 C            0.41696391       -1.41360385       -2.22759797
 C           -0.61661486       -2.32765470       -2.44313597
 C           -1.93412338       -1.82522046       -2.80156537
 C            1.40818907        0.71824472       -2.76663069
 C            1.10879474        2.14695288       -2.81290691
 C            0.38650913       -0.20906738       -2.93897811
 C           -0.87123953        3.34820357       -2.00835228
 C           -2.15311199        2.72094631       -1.73808697
 C           -0.19807012        2.56343716       -3.03355319
 C           -2.78175396        0.40529073       -2.38058038
 C           -2.02765817       -0.51072031       -3.21857719
 C           -0.80499701        0.19522302       -3.54193009
 C           -2.38453220        1.74139034       -2.77378849
 C           -1.15577688        1.60509923       -3.54589174
