58
Modified xyz file
 C            1.46788176        0.06316975        4.30539843
 C            0.64540964       -1.12655804        4.19614910
 C            1.37761387       -2.10173079        3.41013604
 C            2.62080819       -0.11605624        3.43797258
 C            2.57168194       -1.45206200        2.89240046
 C            2.64409467        0.99252115        2.51045700
 C            0.69653310        1.18326544        3.78995986
 C            1.49927659        1.84586487        2.78840133
 C           -0.66994789       -0.71643025        3.73835942
 C           -0.60505240        0.69543233        3.39218402
 C           -1.37885177       -1.56317218        2.90065919
 C            0.70030038       -2.74008593        2.29494451
 C           -0.67895504       -2.63392314        2.19239731
 C            2.57112235       -1.60699170        1.44854514
 C            1.50319444       -2.52755361        1.10280161
 C            2.97062340        0.77694811        1.17450272
 C            2.79027975       -0.50575349        0.61818989
 C            2.81763785        1.88570379        0.35013797
 C            0.86559375        2.43406613        1.69784457
 C            1.68508161        2.75693649        0.61791605
 C           -1.13020247        1.12106911        2.17148507
 C           -0.48630078        2.14208082        1.45728459
 C           -2.30158014       -0.97448351        1.95035699
 C           -2.11872146        0.34850022        1.54865389
 C           -1.28783661       -2.73995298        0.87783766
 C           -2.52215139       -1.98321719        0.93699001
 C            0.87680699       -2.37105245       -0.13081685
 C           -0.49415833       -2.63173987       -0.26443873
 C            2.43965506       -0.63413918       -0.73284359
 C            1.52955348       -1.62919832       -1.11336804
 C            2.92588406        1.72279701       -1.08093083
 C            2.74623620        0.39525085       -1.61791550
 C            1.10036402        3.13910730       -0.65428798
 C            1.93460979        2.58668723       -1.70397140
 C           -1.09657998        2.64729045        0.31239373
 C           -0.27673286        3.10372516       -0.80054364
 C           -2.66853659        0.75923675        0.33071053
 C           -2.24884253        1.95768887       -0.24224473
 C           -3.09359381       -1.58601714       -0.25521883
 C           -3.36222619       -0.17123744       -0.44625461
 C           -1.12360993       -2.37370249       -1.48778823
 C           -2.48363143       -2.04074477       -1.48949793
 C            1.03185876       -1.66760248       -2.41251861
 C           -0.33432346       -2.11747167       -2.61056733
 C            1.98178530        0.53922473       -2.84163583
 C            1.31163381        1.83083703       -2.77468055
 C            1.27209720       -0.55123914       -3.31459882
 C           -0.86022936        2.58244119       -2.02986651
 C           -2.18918387        2.09631286       -1.69238564
 C           -0.07019757        1.88810460       -2.95282028
 C           -3.48816338        0.03315683       -1.88102671
 C           -3.03550653       -1.18936816       -2.53027060
 C           -2.79720298        1.14707874       -2.50117380
 C           -0.87639211       -1.38567609       -3.74527186
 C            0.04015152       -0.30014925       -4.04016454
 C           -0.66149325        0.94842345       -3.79498679
 C           -2.20544340       -0.81787991       -3.65426585
 C           -2.07212198        0.63226817       -3.64871505
