58
Modified xyz file
 C            1.26167234       -0.11689995        3.70599638
 C            2.50936321       -0.42672891        3.05090413
 C            2.41258734       -1.77620101        2.51224413
 C            0.41047812       -1.29448642        3.63083584
 C            1.08695577       -2.28545254        2.81681966
 C           -0.91972064       -0.85427975        3.24676500
 C            0.48980795        1.01355296        3.23004990
 C           -0.90227775        0.59901153        3.17924482
 C            0.98452049        1.83587149        2.21938467
 C            2.96084739        0.43431792        1.97719462
 C            2.22726813        1.56874832        1.61906631
 C            2.85307794       -1.72762836        1.12548967
 C            3.47591653       -0.43286687        0.93052902
 C            2.03156369       -2.24895366        0.12760594
 C            0.37338036       -2.93385873        1.81949863
 C            0.95876504       -3.06259901        0.49431099
 C           -1.63728790       -1.56279318        2.28637843
 C           -1.04568940       -2.65110231        1.64154442
 C           -2.73028782       -0.93633000        1.69515815
 C           -1.77276535        1.24085737        2.30201224
 C           -2.84391757        0.51147539        1.78927504
 C            0.08496524        2.70586713        1.60778670
 C           -1.33772162        2.39543717        1.64526930
 C            0.38529394        3.28518472        0.31060085
 C            2.58548217        2.22184812        0.43924249
 C            1.61096327        3.02303594       -0.28016852
 C            3.57961027        0.07244768       -0.35420248
 C            3.36737781        1.49610020       -0.54787529
 C            2.11871967       -1.74580814       -1.17730697
 C            2.90717038       -0.62417510       -1.44013643
 C            1.18221670       -2.12780342       -2.13864546
 C           -0.13270841       -3.28533370       -0.43373639
 C           -1.37164470       -2.93084225        0.24938514
 C            0.03675899       -2.94000667       -1.76275380
 C           -3.15037542       -1.32482079        0.35788077
 C           -2.33626274       -2.16141515       -0.39930743
 C           -3.54153364        0.98023228        0.60533235
 C           -3.75912013       -0.16265215       -0.26692091
 C           -1.91179303        2.78382679        0.36227385
 C           -0.82967796        3.25165804       -0.48924297
 C           -2.95161166        2.04252045       -0.18356198
 C           -0.77286279        2.85358296       -1.82068100
 C            1.67519229        2.65499408       -1.68830016
 C            2.74002034        1.68497869       -1.84386563
 C            2.41994938        0.37478556       -2.38035672
 C            0.50173712        2.47166970       -2.40733782
 C            0.73166095       -1.14327323       -3.11116828
 C            1.19257450        0.16608380       -3.00383940
 C            0.29906295        1.23391361       -3.15055395
 C           -1.11223541       -2.46807027       -2.51138925
 C           -2.27666640       -1.99556093       -1.78417434
 C           -0.66966252       -1.39792962       -3.39026350
 C           -3.34865555        0.20831975       -1.60807214
 C           -2.86820547        1.58187626       -1.56207030
 C           -1.79525669        1.96905906       -2.35889403
 C           -1.13763550        0.99449360       -3.21703744
 C           -2.68123749       -0.73115611       -2.38392359
 C           -1.61814668       -0.30672234       -3.28229325
