58
Modified xyz file
 C            1.12392132       -0.06353740        4.19448665
 C            2.31728634       -0.18642833        3.37776071
 C            2.24154085       -1.45808017        2.67954401
 C            0.28886418       -1.22855712        3.93837573
 C            0.90525953       -1.98203251        2.86473146
 C           -1.07283074       -0.77515147        3.77063077
 C            0.29114445        1.11677888        4.05347893
 C           -1.08825512        0.66799506        3.94184163
 C            0.72677510        2.17865112        3.26586408
 C            2.61080770        0.83901311        2.39147829
 C            1.87854272        2.01773245        2.38243934
 C            2.69975068       -1.24919832        1.31831974
 C            2.90049132        0.17451029        1.13105488
 C            2.07148896       -1.94018469        0.28977305
 C            0.17818822       -2.30560611        1.72184236
 C            0.89604892       -2.64647032        0.57623388
 C           -1.75569431       -1.07624331        2.52827862
 C           -1.15505441       -1.89029194        1.57273988
 C           -1.94110697        1.22891402        2.90452508
 C           -2.41889483        0.13135572        2.07662346
 C           -0.25732558        2.97965491        2.55836625
 C           -1.57485558        2.42084798        2.29713817
 C            1.55238580        2.63280520        1.10767743
 C            0.32274298        3.37193109        1.28432021
 C            2.48028277        0.73530500       -0.07423796
 C            1.72278121        1.91467019       -0.07275077
 C            2.26532336       -1.47103132       -1.00879063
 C            2.43645819       -0.09014635       -1.19882125
 C            1.86081883       -2.29329511       -2.05751300
 C            0.18742994       -3.21326842       -0.47573471
 C            0.79641960       -3.23750826       -1.79294063
 C           -1.71921953       -1.91157941        0.29633343
 C           -1.19600257       -2.80891564       -0.63363263
 C           -2.58310927        0.31651780        0.70524576
 C           -2.44710688       -0.79543191       -0.13854726
 C           -1.85751800        2.60615190        0.88678102
 C           -0.69959276        3.23386886        0.26932320
 C           -2.51725070        1.61162865        0.16924243
 C            0.93290959        2.23391342       -1.18677934
 C           -0.33741902        2.80062929       -1.00234319
 C            2.12743658        0.50167878       -2.41979669
 C            1.25842309        1.66225017       -2.41524494
 C            1.63228503       -1.74084569       -3.37772809
 C            1.77846447       -0.31551214       -3.56470184
 C           -0.24992335       -3.00897526       -2.77440049
 C           -1.45261621       -2.62917065       -2.05345969
 C            0.28433137       -2.11312803       -3.78348349
 C           -2.81536297       -0.68082133       -1.47625231
 C           -2.19223527       -1.53290790       -2.47398528
 C           -2.53537308        1.76623377       -1.21343472
 C           -1.38171861        2.40056389       -1.83212779
 C           -2.92150585        0.64482301       -2.04275993
 C            0.21820213        1.43408008       -3.40731314
 C            0.52967403        0.19536381       -4.10485304
 C           -0.43621654       -0.89255750       -4.09581350
 C           -1.69824685       -0.67711649       -3.54939091
 C           -1.09981870        1.71326630       -3.07771002
 C           -2.11222557        0.68285838       -3.24990323
