58
Modified xyz file
 C            1.23002774       -0.12995664        3.69373673
 C            2.45670685       -0.40467669        2.98421310
 C            2.37543218       -1.76236178        2.47382962
 C            0.37622443       -1.30475284        3.57157216
 C            1.00139980       -2.20595821        2.63406759
 C           -0.95744229       -0.83664609        3.28821488
 C            0.43638321        1.01769536        3.29585816
 C           -0.94494880        0.60873518        3.44789427
 C            0.80010070        1.76893371        2.17489072
 C            2.81850022        0.45103941        1.87633764
 C            2.06881756        1.58870664        1.58596808
 C            2.95253747       -1.77447529        1.14012458
 C            3.24468938       -0.39697395        0.77403046
 C            2.38063244       -2.60599095        0.19427236
 C            0.30453961       -2.62856897        1.50363212
 C            1.06521092       -3.16667211        0.46786757
 C           -1.67184285       -1.38515371        2.22710009
 C           -0.99663633       -2.14396598        1.24652845
 C           -2.89303432       -0.78332911        1.93174940
 C           -1.92884199        1.34348743        2.80960330
 C           -3.06387641        0.62270936        2.25820549
 C           -0.17987474        2.56089789        1.55004933
 C           -1.52953343        2.34221933        1.82988939
 C            0.11634532        3.24178616        0.37389002
 C            2.37507773        2.23085343        0.39230737
 C            1.46494602        3.21690655       -0.13817394
 C            3.02308447        0.05107179       -0.53037673
 C            2.86683765        1.42562756       -0.71702371
 C            2.38044346       -2.18868032       -1.19294314
 C            2.57430498       -0.84464174       -1.51226405
 C            0.44535642       -3.45280221       -0.80261262
 C            1.30975523       -2.92131787       -1.84510516
 C           -1.62391336       -2.42656303        0.01355231
 C           -0.88805200       -2.95947949       -1.03746900
 C           -3.51127717       -1.00088368        0.64659907
 C           -2.78434947       -1.75531675       -0.34409696
 C           -3.48609386        1.30802939        1.04895778
 C           -2.46449645        2.27849184        0.71629642
 C           -3.82160056        0.30137880        0.07207438
 C           -0.79671438        3.11156328       -0.75273027
 C           -1.96029026        2.36260905       -0.58258784
 C            1.39846358        3.04155749       -1.57964626
 C            2.28173049        1.94360122       -1.94096518
 C           -0.00393953        2.98473658       -1.96162650
 C            2.07410594       -0.36656262       -2.72652805
 C            1.88860509        1.05927225       -2.93252747
 C            0.47834194       -2.22539218       -2.80786184
 C           -0.89557321       -2.26467377       -2.31746170
 C            0.96441690       -1.05749186       -3.37367783
 C           -2.78816410       -0.98757275       -1.57906896
 C           -3.18842301        0.36412496       -1.22898872
 C           -2.33797535        1.41949915       -1.55656039
 C           -1.74547026       -1.16573244       -2.48675525
 C           -0.40106022        2.08929024       -2.94024915
 C            0.60059851        1.25130932       -3.58055433
 C            0.01285870       -0.05724807       -3.80804359
 C           -1.58651836        1.27920812       -2.72171968
 C           -1.31653220       -0.06150040       -3.22569452
