46
0 1
C       -3.982668   -1.200012   -0.224882 
C       -4.267460    0.056278    0.506700 
C       -3.957040    1.113032   -0.335122 
C       -3.329886   -0.806591   -1.543849 
C       -3.315892    0.599646   -1.608624 
C       -2.074737   -1.498604   -1.655360 
C       -3.009567   -1.893547    0.492950 
C       -1.952346   -2.332011   -0.429647 
C       -3.285852    0.108456    1.656847 
C       -2.547524   -1.076808    1.661544 
C       -2.935114    1.976367    0.309740 
C       -2.514683    1.365021    1.535120 
C       -2.070790    1.286138   -1.793253 
C       -1.942427    2.268099   -0.676496 
C       -0.892547   -0.851898   -2.102761 
C       -0.886773    0.599037   -2.175682 
C        0.385848   -1.523811   -1.833990 
C       -0.726959   -2.583296    0.083959 
C        0.459052   -2.420301   -0.749555 
C       -1.138752   -1.096901    2.016440 
C       -0.344138   -2.107817    1.440120 
C       -1.133582    1.389100    1.892998 
C       -0.467069    0.156396    2.350620 
C       -0.682036    2.579352   -0.214621 
C       -0.312830    2.284365    1.155612 
C        0.400210    1.288926   -1.998152 
C        0.491496    2.317437   -1.040521 
C        1.619605   -0.891763   -2.186366 
C        1.628406    0.603445   -2.275231 
C        2.837507   -1.313146   -1.618157 
C        1.616506   -2.448722    0.134301 
C        1.091275   -2.075590    1.470795 
C        2.843451   -1.992778   -0.320775 
C        0.937123    0.151802    2.455505 
C        1.729841   -1.039968    2.159333 
C        1.142388    2.237379    1.198074 
C        1.658162    2.438129   -0.169187 
C        1.759992    1.302418    2.015793 
C        2.855430    1.071088   -1.767580 
C        3.719547   -0.115547   -1.482606 
C        2.878856    1.907191   -0.564748 
C        3.667676   -1.191082    0.598478 
C        3.064359   -0.663525    1.736693 
C        3.080712    0.846604    1.644955 
C        4.214793   -0.039520   -0.194688 
C        3.688438    1.217534    0.445276 
