46
0 1
C        3.744500   -1.035552   -0.553100 
C        2.853623   -2.089766   -0.157076 
C        2.502591   -1.936560    1.213856 
C        3.786484   -0.065070    0.567488 
C        3.015436   -0.606525    1.644165 
C        3.368914    1.194358    0.075283 
C        3.095941   -0.343439   -1.672519 
C        2.988472    1.022860   -1.378124 
C        1.733662   -2.171002   -1.110653 
C        1.860079   -1.044600   -2.030006 
C        0.459445   -2.578746   -0.672822 
C        1.145873   -2.041543    1.623925 
C        0.161393   -2.595604    0.763474 
C        1.917835    0.107965    2.234632 
C        0.805853   -0.826777    2.381516 
C        2.330461    1.963160    0.693866 
C        1.618739    1.450143    1.833030 
C        1.777275    1.744968   -1.606649 
C        1.543203    2.552473   -0.395594 
C        0.703399   -0.313287   -2.423512 
C        0.664118    1.135592   -2.247989 
C       -0.617109   -2.222976   -1.554038 
C       -0.527875   -1.034560   -2.342999 
C       -1.984370   -2.407122   -1.122265 
C       -1.193838   -2.426613    1.181524 
C       -2.287751   -2.608596    0.216158 
C       -0.548344   -0.411242    2.490963 
C       -1.550699   -1.340892    2.047538 
C        0.263029    1.892044    2.019525 
C       -0.815740    0.977987    2.391198 
C        0.285862    3.081088   -0.159675 
C       -0.286378    2.866410    1.141196 
C       -0.621581    1.773475   -2.054938 
C       -0.759720    2.821532   -1.136694 
C       -1.847508   -0.361123   -2.317023 
C       -2.785353   -1.225064   -1.638029 
C       -1.891234    0.998636   -2.068182 
C       -3.359424   -1.656501    0.586228 
C       -2.870155   -0.855806    1.628690 
C       -3.587540   -0.756844   -0.595594 
C       -2.089249    1.458339    1.778069 
C       -1.752489    2.606481    0.971219 
C       -2.044481    2.616101   -0.387598 
C       -2.756627    1.511212   -0.994085 
C       -3.020663    0.565757    1.283377 
C       -3.428058    0.615229   -0.147758 
