46
0 1
C        3.788568   -0.000000   -0.697702 
C        3.788570   -0.000008    0.697701 
C        3.044378    1.191810    1.183061 
C        3.044359    1.191823   -1.183038 
C        2.763166    2.011545    0.000001 
C        1.950757    0.744345   -1.957324 
C        3.044375   -1.191817   -1.183060 
C        1.950780   -0.744334   -1.957323 
C        3.044358   -1.191831    1.183040 
C        2.763163   -2.011554   -0.000002 
C        1.950782    0.744330    1.957326 
C        1.950753   -0.744350    1.957326 
C        0.698377    1.454208    1.968849 
C        1.579460    2.687142    0.000003 
C        0.688175    2.636913    1.175522 
C        0.698410    1.454245   -1.968843 
C        0.688187    2.636913   -1.175484 
C       -0.560499    0.742655   -2.197231 
C        0.698376   -1.454210   -1.968847 
C       -0.560469   -0.742615   -2.197229 
C        1.579452   -2.687151   -0.000003 
C        0.688167   -2.636915   -1.175521 
C        0.698401   -1.454247    1.968842 
C        0.688177   -2.636916    1.175485 
C       -0.560467    0.742617    2.197230 
C       -0.560504   -0.742653    2.197230 
C       -1.761001    1.420290    1.866592 
C       -0.541969    3.233036    0.765183 
C       -0.541981    3.233038   -0.765150 
C       -1.747822    2.716486    1.199942 
C       -1.760987    1.420316   -1.866590 
C       -1.747827    2.716527   -1.199916 
C       -2.653148    2.622135    0.000005 
C       -2.883179    0.676456    1.260798 
C       -2.883169    0.676485   -1.260800 
C       -3.252507    1.384286    0.000005 
C       -1.761005   -1.420284   -1.866592 
C       -2.883182   -0.676447   -1.260799 
C       -0.541982   -3.233036   -0.765183 
C       -0.541993   -3.233039    0.765151 
C       -1.747832   -2.716483   -1.199942 
C       -1.760992   -1.420311    1.866587 
C       -2.883172   -0.676475    1.260799 
C       -3.252512   -1.384276   -0.000006 
C       -1.747835   -2.716521    1.199916 
C       -2.653156   -2.622128   -0.000006 
