46
0 1
C        3.664065   -1.070485    0.184061 
C        3.463965    0.000897    1.201781 
C        3.429887    1.210638    0.525244 
C        3.387184   -0.444835   -1.156271 
C        3.306898    0.916238   -0.985830 
C        2.254351   -1.167747   -1.755853 
C        2.699650   -2.047428    0.397014 
C        1.962619   -2.275426   -0.856775 
C        2.300239   -0.390287    2.012676 
C        1.882931   -1.695501    1.576282 
C        1.291934    0.591058    2.363529 
C        2.425828    2.169614    0.831757 
C        1.377877    1.903497    1.732743 
C        2.157570    1.669885   -1.470677 
C        1.799489    2.593020   -0.462096 
C        1.179607   -0.462431   -2.378864 
C        1.104833    1.008029   -2.232887 
C       -0.054614   -1.175681   -2.493800 
C        0.681841   -2.783762   -0.767367 
C       -0.235020   -2.387832   -1.771369 
C        0.519032   -2.119386    1.635741 
C       -0.060580   -2.809973    0.532288 
C        0.009412    0.121783    2.639314 
C       -0.358160   -1.285653    2.407842 
C       -1.218987    0.928879    2.417687 
C        0.140325    2.518136    1.188390 
C        0.440626    2.903516   -0.178396 
C       -1.159224    2.086825    1.546914 
C       -0.163046    1.613403   -2.208479 
C       -0.498336    2.635385   -1.190407 
C       -1.371656   -0.510785   -2.517795 
C       -1.413139    0.860659   -2.449341 
C       -1.604248   -2.421596   -1.199848 
C       -1.470431   -2.687988    0.219879 
C       -2.330960   -1.331432   -1.708617 
C       -1.753837   -1.355060    2.232794 
C       -2.302948    0.036553    2.339913 
C       -2.344375   -1.988807    1.086371 
C       -3.284383   -0.705388   -0.850807 
C       -3.320443    0.178532    1.351945 
C       -3.321351   -1.090225    0.513287 
C       -2.210386    2.239391    0.571122 
C       -1.839893    2.506772   -0.793962 
C       -2.487824    1.481689   -1.673230 
C       -3.300721    1.276834    0.508658 
C       -3.375601    0.756474   -0.914562 
