46
0 1
C        3.717130    0.593495   -1.073911 
C        3.951406    0.318004    0.269458 
C        3.482039   -1.059120    0.574488 
C        3.017323   -0.577805   -1.685323 
C        3.023785   -1.642255   -0.677254 
C        1.783021   -0.132012   -2.193802 
C        2.782815    1.743822   -1.176138 
C        1.654748    1.329859   -1.913320 
C        3.135652    1.245621    1.108423 
C        2.568459    2.225690    0.196884 
C        2.567095   -0.958103    1.664456 
C        2.266505    0.477564    1.924747 
C        1.500946   -1.860389    1.738671 
C        1.900676   -2.458911   -0.630758 
C        1.353506   -2.776169    0.663284 
C        0.592755   -0.948691   -2.139489 
C        0.741656   -2.198259   -1.512238 
C       -0.739537   -0.306811   -2.226914 
C        0.358576    1.892499   -1.663556 
C       -0.853627    1.147110   -2.026756 
C        1.307552    2.676151    0.492651 
C        0.317609    2.814360   -0.585994 
C        0.900903    0.887921    2.173573 
C        0.572035    2.156598    1.655182 
C        0.139160   -1.445775    2.179427 
C       -0.205054   -0.093728    2.336603 
C       -0.086751   -3.059571    0.502245 
C       -0.425723   -2.809592   -0.854647 
C       -0.801150   -2.374944    1.548425 
C       -1.871193   -1.116725   -1.972666 
C       -1.707502   -2.336518   -1.134575 
C       -3.144468   -0.537286   -1.588362 
C       -2.099015    1.681298   -1.587584 
C       -3.235864    0.823970   -1.356006 
C       -0.930026    3.078804    0.067049 
C       -0.805862    2.524198    1.477771 
C       -2.098331    2.624403   -0.468235 
C       -1.623667    0.293400    2.113098 
C       -3.665417    1.004759    0.116057 
C       -1.880871    1.682792    1.726693 
C       -2.878907    1.965913    0.658306 
C       -2.109528   -1.993606    1.281207 
C       -2.631331   -2.273877   -0.047763 
C       -3.616766   -1.247047   -0.347777 
C       -2.572378   -0.662008    1.683951 
C       -3.652386   -0.319029    0.710421 
