46
0 1
C       -3.755234   -0.019704   -0.735658 
C       -3.565753   -0.603141    0.629651 
C       -2.950035   -1.844749    0.483020 
C       -2.947906   -0.855781   -1.669759 
C       -2.562175   -1.995771   -0.985238 
C       -1.904927   -0.004120   -2.255369 
C       -3.195075    1.260235   -0.731831 
C       -2.161053    1.329159   -1.784536 
C       -2.926331    0.410638    1.461291 
C       -2.799642    1.631933    0.648063 
C       -1.840882    0.037568    2.269730 
C       -1.790550   -2.205155    1.247936 
C       -1.287272   -1.306664    2.198065 
C       -1.202721   -2.456973   -1.033003 
C       -0.818250   -2.802508    0.318767 
C       -0.550732   -0.481129   -2.401373 
C       -0.253445   -1.806626   -1.895970 
C        0.521918    0.517697   -2.444755 
C       -1.106825    2.226931   -1.592671 
C        0.252345    1.848252   -2.017823 
C       -1.714939    2.469711    0.805529 
C       -1.020522    2.953480   -0.375625 
C       -0.717722    0.964191    2.478889 
C       -0.670437    2.170405    1.809017 
C        0.165926   -1.234924    2.445341 
C        0.517527    0.174031    2.665039 
C        0.540263   -2.869152    0.660698 
C        1.057491   -2.065575    1.798442 
C        1.115653   -2.173811   -1.657680 
C        1.472460   -2.798380   -0.384538 
C        1.892591    0.083367   -2.299065 
C        2.161370   -1.299047   -2.001252 
C        2.849088    0.878245   -1.588612 
C        1.176929    2.565155   -1.147981 
C        0.402391    3.102241   -0.051826 
C        0.624648    2.647006    1.276269 
C        2.442877    2.029260   -0.859288 
C        1.752147    0.648286    2.278789 
C        1.823346    1.945573    1.555358 
C        2.795576    1.826442    0.541793 
C        2.405843   -1.595150    1.424560 
C        2.715988   -2.150395    0.125896 
C        3.226449   -1.352986   -0.910864 
C        3.617963   -0.029986   -0.639539 
C        2.758906   -0.256131    1.682847 
C        3.452733    0.488047    0.659268 
