46
0 1
C       -3.912973    0.273964    0.663703 
C       -3.360815   -0.992708    1.063936 
C       -3.077903   -1.783189   -0.093539 
C       -3.736088    0.370589   -0.805564 
C       -3.193883   -0.866525   -1.279431 
C       -2.983069    1.526718   -1.097698 
C       -3.066193    1.309273    1.254298 
C       -2.644930    2.179524    0.226647 
C       -2.258415   -0.756063    2.002738 
C       -2.024278    0.692866    2.071346 
C       -1.163137   -1.606564    1.970245 
C       -1.859690   -2.493419   -0.203915 
C       -0.994631   -2.580644    0.902905 
C       -1.970473   -0.929000   -2.004680 
C       -1.237582   -2.115277   -1.496845 
C       -1.769126    1.474681   -1.852998 
C       -1.207263    0.244626   -2.324174 
C       -1.301847    2.629283    0.170452 
C       -0.846482    2.409529   -1.201828 
C       -0.692270    1.208779    2.098635 
C       -0.384563    2.331084    1.228299 
C        0.166808   -1.106206    2.329202 
C        0.400075    0.290411    2.441479 
C        0.431988   -2.773884    0.701258 
C        1.145381   -1.991797    1.723605 
C        0.103912   -2.241266   -1.672062 
C        0.947792   -2.790346   -0.596650 
C        0.260677    0.139071   -2.482157 
C        0.881974   -1.159506   -2.328757 
C        0.512994    2.387592   -1.487668 
C        1.102542    1.237440   -2.208694 
C        0.986108    2.635628    0.934013 
C        1.388565    2.780044   -0.458429 
C        1.768203    0.709996    2.266304 
C        2.028721    1.945698    1.581986 
C        2.464834   -1.557482    1.504827 
C        2.786514   -0.227112    1.890635 
C        2.289420   -2.312944   -0.828398 
C        2.221568   -1.290579   -1.940726 
C        3.069243   -1.804616    0.190954 
C        2.490496    1.106852   -1.728524 
C        2.696963    2.080419   -0.669445 
C        3.173293    1.706271    0.585966 
C        3.641814    0.387089    0.794347 
C        3.050352   -0.171374   -1.557109 
C        3.675374   -0.506924   -0.278490 
