46
0 1
C       -3.653532   -1.345068   -0.288127 
C       -3.883872   -0.074488    0.406428 
C       -3.382581    0.996387   -0.505593 
C       -2.887937   -1.056236   -1.447520 
C       -2.673170    0.393711   -1.579926 
C       -1.700337   -1.909125   -1.498064 
C       -2.743048   -2.133474    0.591825 
C       -1.720791   -2.682970   -0.290060 
C       -3.027244   -0.031919    1.531028 
C       -2.277265   -1.301287    1.633339 
C       -2.661892    1.934528    0.325870 
C       -2.270716    1.226802    1.559229 
C       -1.732292    2.717219   -0.319850 
C       -1.382590    0.905116   -1.995339 
C       -1.120224    2.218778   -1.575969 
C       -0.452378   -1.433498   -2.034209 
C       -0.238989   -0.022326   -2.254676 
C        0.668409   -2.288639   -1.721044 
C       -0.510837   -3.050320    0.311959 
C        0.591011   -3.143204   -0.533095 
C       -0.871136   -1.275070    2.016898 
C       -0.089491   -2.350616    1.562144 
C       -0.941600    1.282511    2.003175 
C       -0.208258    0.013721    2.303264 
C       -0.667103    3.238649    0.498481 
C       -0.194840    2.442356    1.574990 
C        0.238777    2.746914   -1.573331 
C        0.465057    3.526321   -0.410248 
C        1.124541    0.498707   -2.193063 
C        1.368040    1.849586   -1.789042 
C        1.986689   -1.794245   -1.779032 
C        2.231581   -0.399121   -1.938910 
C        1.820894   -2.909889    0.279793 
C        1.372794   -2.304338    1.525820 
C        2.749030   -2.276242   -0.545094 
C        1.187264    0.033183    2.326008 
C        2.009612   -1.140791    1.965332 
C        1.284687    2.395144    1.451778 
C        1.674109    3.010647    0.231462 
C        2.343338    2.167599   -0.757713 
C        1.959985    1.227550    1.876232 
C        3.283212   -0.026728   -1.014942 
C        3.474123   -1.174510   -0.042763 
C        3.174820   -0.678592    1.237842 
C        3.203068    1.170409   -0.272005 
C        3.081084    0.806857    1.146720 
