46
0 1
C       -3.143913   -1.817920    1.047481 
C       -3.646458   -0.429982    0.959891 
C       -3.853371   -0.135320   -0.405662 
C       -2.767221   -2.232245   -0.344562 
C       -3.133224   -1.228771   -1.213840 
C       -1.358585   -2.606480   -0.303929 
C       -1.956979   -1.806050    1.800072 
C       -0.901944   -2.463108    1.045693 
C       -2.745358    0.407393    1.748698 
C       -1.655209   -0.444066    2.271228 
C       -2.409683    1.677094    1.256939 
C       -3.426379    1.099233   -0.928085 
C       -2.850741    2.052381   -0.067834 
C       -2.137661   -0.545788   -2.065833 
C       -2.404390    0.824938   -2.010109 
C       -0.456903   -2.167560   -1.342917 
C       -0.762982   -1.004749   -2.111933 
C        0.902040   -2.463294   -1.045984 
C        0.457197   -2.167319    1.342819 
C        1.358838   -2.606436    0.304192 
C       -0.318724   -0.026954    2.358312 
C        0.763201   -1.004689    2.112007 
C       -1.033216    2.162870    1.444929 
C       -0.041237    1.394733    2.093140 
C       -1.658934    2.610042   -0.764379 
C       -1.322522    1.792943   -1.870381 
C       -0.656214    2.887022    0.220203 
C        0.318488   -0.027299   -2.358305 
C        0.041082    1.394602   -2.093314 
C        1.956845   -1.805929   -1.799929 
C        1.655241   -0.444255   -2.271072 
C        2.767264   -2.231994    0.344535 
C        3.144100   -1.817730   -1.047183 
C        2.137715   -0.545806    2.065994 
C        3.133205   -1.228527    1.214135 
C        1.322439    1.793085    1.870224 
C        2.404170    0.825159    2.009870 
C        0.656096    2.886995   -0.220490 
C        1.033046    2.162702   -1.444981 
C        1.658822    2.610075    0.764209 
C        2.745323    0.407272   -1.748592 
C        3.646358   -0.430108   -0.959811 
C        3.853418   -0.135083    0.405857 
C        3.426458    1.099347    0.927965 
C        2.409739    1.677037   -1.256876 
C        2.850762    2.052534    0.067606 
