46
0 1
C        2.971186   -1.923456   -0.536022 
C        3.280154   -0.529679   -0.885672 
C        3.279717    0.227878    0.356881 
C        2.576363   -1.979925    0.805620 
C        2.710092   -0.632908    1.407168 
C        1.306811   -2.720231    0.893276 
C        1.830538   -2.353258   -1.382959 
C        0.872020   -2.983441   -0.514307 
C        2.411127   -0.151124   -1.942243 
C        1.450836   -1.261397   -2.208734 
C        1.943571    1.178477   -1.976920 
C        2.909560    1.571497    0.288098 
C        2.380941    2.068670   -0.973220 
C        2.067030    2.097810    1.335504 
C        1.695114   -0.159821    2.257765 
C        1.382797    1.254677    2.227178 
C        0.380608   -2.322488    1.810547 
C        0.582810   -1.048987    2.574536 
C       -1.068435   -2.435671    1.519011 
C       -0.459711   -2.854381   -0.851163 
C       -1.494382   -2.749921    0.208284 
C        0.064694   -0.991940   -2.453060 
C       -0.841140   -1.965413   -1.947038 
C        0.522704    1.460923   -2.305198 
C       -0.394321    0.413975   -2.581808 
C        1.244430    2.991871   -0.665289 
C        1.069721    3.037410    0.707682 
C        0.136145    2.627234   -1.525053 
C       -0.024321    1.738747    2.324522 
C       -0.222278    2.781808    1.307927 
C       -0.679677   -0.531125    2.833481 
C       -1.730066   -1.381845    2.197885 
C       -1.044823    0.854782    2.594946 
C       -2.708381   -0.539844    1.587544 
C       -2.297597    0.869233    1.820955 
C       -2.605154   -2.058100   -0.321984 
C       -2.231170   -1.619588   -1.720791 
C       -3.223933   -0.939139    0.332854 
C       -1.777694    0.713670   -2.330711 
C       -2.699101   -0.352835   -1.936749 
C       -3.424554    0.095749   -0.680578 
C       -1.157387    2.704772   -0.981492 
C       -1.346357    2.732857    0.493211 
C       -2.452176    1.819996    0.817005 
C       -2.130061    1.846717   -1.540604 
C       -3.056249    1.397763   -0.440285 
