46
0 1
C       -2.934769   -1.862345   -0.912677 
C       -2.935856   -1.612406    0.560723 
C       -1.797704   -2.236878    1.118408 
C       -1.702968   -2.596950   -1.220260 
C       -1.115510   -2.984164   -0.002311 
C       -0.912171   -1.776910   -2.142763 
C       -2.869460   -0.616322   -1.548151 
C       -1.625394   -0.539718   -2.332264 
C       -3.172332   -0.205209    0.760644 
C       -3.172365    0.444329   -0.578344 
C       -2.488783    0.427064    1.808383 
C       -0.973551   -1.530882    2.068183 
C       -1.328212   -0.218287    2.407566 
C        0.434098   -1.891990    2.138760 
C        0.274923   -3.160712    0.038791 
C        0.960460   -2.889980    1.312829 
C        0.522302   -1.812275   -2.051926 
C        1.096164   -2.668362   -1.029184 
C        1.212418   -0.636086   -2.395961 
C       -0.938295    0.707578   -2.425003 
C        0.486219    0.620968   -2.631971 
C       -2.572379    1.671561   -0.757747 
C       -1.446685    1.840095   -1.720365 
C       -2.186346    1.834892    1.667268 
C       -2.249958    2.448044    0.424052 
C       -0.282050    0.843117    2.604701 
C       -0.813187    2.067588    2.224974 
C        1.491725   -0.831380    2.331413 
C        1.125493    0.551652    2.389903 
C        2.336613   -2.527237    0.956538 
C        2.391673   -2.318068   -0.435327 
C        2.636620   -1.228649    1.613463 
C        2.519828   -0.283801   -1.772399 
C        3.008284   -1.015165   -0.705612 
C        3.202398   -0.347645    0.611057 
C        1.314285    1.708140   -2.267913 
C        2.581735    1.155896   -1.692327 
C       -0.542415    2.835157   -1.166168 
C       -0.960154    3.158338    0.175334 
C       -0.102431    2.940355    1.287085 
C        0.844938    2.754883   -1.408946 
C        1.906265    1.481819    1.668247 
C        2.942657    1.014490    0.736046 
C        2.819000    1.793338   -0.481332 
C        1.266028    2.674676    1.046118 
C        1.748849    2.817441   -0.271538 
