46
0 1
C       -3.294178   -1.689051    0.420340 
C       -3.641537   -0.391457    0.019698 
C       -3.223283   -0.219017   -1.378802 
C       -2.472149   -2.328123   -0.653997 
C       -2.460643   -1.470477   -1.745034 
C       -1.210076   -2.742364   -0.070596 
C       -2.426035   -1.610143    1.609413 
C       -1.216269   -2.322981    1.349160 
C       -3.117185    0.565587    1.025807 
C       -2.367954   -0.243324    2.032418 
C       -2.570417    1.747923    0.605911 
C       -2.449566    0.862274   -1.752111 
C       -2.299476    1.986934   -0.856453 
C       -1.202772   -1.056118   -2.332657 
C       -1.208831    0.382187   -2.444777 
C       -0.020771   -2.632345   -0.818950 
C       -0.004003   -1.750239   -2.000975 
C        1.190748   -2.743052   -0.051258 
C       -0.000680   -1.885592    1.950549 
C        1.199989   -2.331440    1.318821 
C       -1.151968    0.233144    2.545151 
C        0.005707   -0.613267    2.597096 
C       -1.442281    2.367438    1.338409 
C       -0.712170    1.611145    2.251867 
C       -1.192394    2.791123   -0.980757 
C       -0.702519    3.172357    0.397122 
C       -0.005333    1.126562   -2.435994 
C        0.002715    2.415208   -1.763777 
C        1.197671   -1.056199   -2.310583 
C        1.211140    0.384609   -2.440220 
C        2.474946   -2.360528   -0.642868 
C        2.450179   -1.480337   -1.709668 
C        2.465761   -1.622055    1.563241 
C        3.291530   -1.738058    0.440788 
C        1.207940    0.249584    2.509983 
C        0.749718    1.616261    2.228561 
C        2.394903   -0.212789    1.996974 
C        0.679172    3.177777    0.374751 
C        1.124747    2.793585   -1.015622 
C        1.455247    2.383458    1.296654 
C        2.426199    0.888848   -1.761070 
C        3.217778   -0.229093   -1.340010 
C        3.640850   -0.357724   -0.011339 
C        3.133639    0.578955    0.982205 
C        2.298568    1.974179   -0.885774 
C        2.573344    1.776639    0.548377 
