46
0 1
C       -3.298902   -0.932713   -0.633805 
C       -2.752077   -0.502086   -1.822580 
C       -1.674108   -1.465569   -2.234232 
C       -2.546194   -2.185297   -0.220384 
C       -1.466976   -2.407190   -1.183843 
C       -2.255986   -2.080652    1.113363 
C       -3.346140   -0.042036    0.522738 
C       -2.789938   -0.765935    1.635666 
C       -2.943348    1.296953    0.342923 
C       -2.224682    0.843167   -1.995424 
C       -2.377296    1.747449   -0.956067 
C       -0.610932   -0.724205   -2.804775 
C       -0.925862    0.725031   -2.698780 
C        0.681977   -1.187164   -2.573637 
C       -0.137155   -2.682369   -0.729075 
C        0.901431   -2.250651   -1.609500 
C       -0.901427   -2.250649    1.609505 
C        0.137161   -2.682368    0.729077 
C       -1.804074   -0.222357    2.486760 
C       -0.681976   -1.187164    2.573637 
C       -2.155805    1.901322    1.374827 
C       -1.499694    1.155617    2.387060 
C       -1.275940    2.692062   -0.667486 
C       -1.151472    2.809039    0.746417 
C        0.089962    1.617439   -2.462216 
C       -0.091031    2.660125   -1.426067 
C        1.804073   -0.222357   -2.486758 
C        1.499692    1.155615   -2.387060 
C        2.255987   -2.080649   -1.113360 
C        2.789938   -0.765934   -1.635664 
C        1.466979   -2.407188    1.183843 
C        2.546196   -2.185293    0.220387 
C        0.610934   -0.724202    2.804775 
C        1.674109   -1.465564    2.234234 
C       -0.089963    1.617442    2.462215 
C        0.091030    2.660127    1.426064 
C        0.925861    0.725035    2.698778 
C        1.151470    2.809038   -0.746420 
C        2.155803    1.901320   -1.374828 
C        1.275938    2.692062    0.667483 
C        3.346138   -0.042034   -0.522739 
C        3.298902   -0.932709    0.633806 
C        2.752077   -0.502082    1.822579 
C        2.224681    0.843170    1.995421 
C        2.943345    1.296954   -0.342925 
C        2.377294    1.747451    0.956065 
