46
0 1
C        3.769318   -1.029125    0.287758 
C        3.776418   -0.387563   -0.939314 
C        3.416809    1.041340   -0.736305 
C        3.300024   -0.063525    1.343193 
C        3.207851    1.241289    0.694383 
C        2.167767   -0.602893    1.977292 
C        2.767106   -2.121500    0.244202 
C        1.936006   -1.957842    1.386133 
C        2.697130   -0.981152   -1.796265 
C        2.136141   -2.108598   -1.063463 
C        2.354407    1.334761   -1.632857 
C        1.833464    0.047670   -2.202994 
C        1.425868    2.314032   -1.262620 
C        2.151550    2.059642    1.088817 
C        1.480780    2.812586    0.066430 
C        1.001228    0.203506    2.319934 
C        1.095467    1.566170    2.004709 
C       -0.345948   -0.421402    2.418396 
C        0.644708   -2.438030    1.298206 
C       -0.482088   -1.808279    2.025162 
C        0.749000   -2.358123   -1.164983 
C        0.149927   -2.891138    0.025542 
C        0.410291   -0.169733   -2.320107 
C       -0.088717   -1.472014   -1.987324 
C        0.007765    2.199795   -1.658302 
C       -0.478047    1.006432   -2.236813 
C        0.091462    3.068764    0.505548 
C       -0.129937    2.336006    1.700118 
C       -0.777239    2.887283   -0.626031 
C       -1.515591    0.350846    2.297062 
C       -1.404312    1.774546    1.901988 
C       -2.768234   -0.161483    1.694947 
C       -1.664937   -2.299402    1.460772 
C       -1.286296   -2.968355    0.153386 
C       -2.822653   -1.476918    1.206125 
C       -1.524456   -1.655019   -1.908565 
C       -2.099565   -2.493786   -0.833158 
C       -3.214773   -1.698278   -0.186976 
C       -1.900983    0.787410   -2.136184 
C       -2.390637   -0.576190   -2.084518 
C       -3.490132   -0.630908   -1.029814 
C       -2.099983    2.507966   -0.369402 
C       -2.430195    2.075800    0.976957 
C       -3.330718    0.890806    0.870356 
C       -2.711012    1.586451   -1.283909 
C       -3.614035    0.678155   -0.487513 
