46
0 1
C        4.028322   -1.175030   -0.080674 
C        4.332556    0.262812    0.049483 
C        3.857814    0.912638   -1.084720 
C        3.220994   -1.339893   -1.357266 
C        3.108781   -0.063496   -1.959231 
C        2.013344   -2.036361   -1.038169 
C        3.170054   -1.521790    0.968955 
C        2.030966   -2.278092    0.432761 
C        3.531261    0.762612    1.225103 
C        2.830579   -0.320960    1.790181 
C        2.872957    1.956761   -0.702383 
C        2.741144    1.911721    0.756049 
C        1.811724    0.483427   -2.210102 
C        1.715149    1.790723   -1.486881 
C        0.767296   -1.643925   -1.596655 
C        0.656667   -0.331331   -2.188619 
C       -0.440711   -2.182725   -0.976140 
C        0.858569   -2.273957    1.116798 
C       -0.389675   -2.492623    0.394780 
C        1.471596   -0.179490    2.292045 
C        0.562274   -1.267687    2.171367 
C        1.473998    2.079252    1.270800 
C        0.860961    1.108640    2.212240 
C        0.440719    2.182836   -0.975993 
C        0.389679    2.492598    0.394969 
C       -0.656658    0.331532   -2.188555 
C       -0.767294    1.644027   -1.596536 
C       -1.715150   -1.790582   -1.486978 
C       -1.811747   -0.483240   -2.210122 
C       -2.872945   -1.956706   -0.702537 
C       -1.474006   -2.079340    1.270637 
C       -0.860969   -1.108810    2.212146 
C       -2.741140   -1.911780    0.755908 
C       -0.562279    1.267516    2.171461 
C       -0.858586    2.273860    1.116959 
C       -1.471607    0.179310    2.292050 
C       -2.013381    2.036438   -1.038032 
C       -2.030995    2.278054    0.432940 
C       -3.108762    0.063638   -1.959236 
C       -3.857789   -0.912554   -1.084792 
C       -3.220981    1.340003   -1.357154 
C       -3.531248   -0.762718    1.225032 
C       -2.830587    0.320811    1.790191 
C       -3.170071    1.521690    0.969060 
C       -4.332514   -0.262822    0.049449 
C       -4.028307    1.175013   -0.080588 
