46
0 1
C        3.501397    0.068035    1.308136 
C        3.248890   -1.315187    0.848151 
C        3.229046   -1.302932   -0.550089 
C        3.543278    0.940930    0.091904 
C        3.363225    0.122621   -1.023332 
C        2.591437    2.016108    0.310874 
C        2.394920    0.475406    2.069519 
C        1.861407    1.739373    1.552399 
C        2.050531   -1.781108    1.555386 
C        1.466796   -0.647510    2.273401 
C        1.188751   -2.647695    0.901067 
C        2.130953   -1.889095   -1.279281 
C        1.303674   -2.787525   -0.582641 
C        2.279049    0.350824   -1.969287 
C        1.501370   -0.889866   -2.132026 
C        1.844413    2.464638   -0.791807 
C        1.591724    1.541301   -1.922883 
C        0.628683    3.122148   -0.505156 
C        0.492745    2.017964    1.692970 
C       -0.023810    2.983901    0.752344 
C        0.078926   -0.433359    2.327648 
C       -0.418835    0.964542    2.222829 
C       -0.211994   -2.644554    1.246530 
C       -0.787549   -1.558949    1.961186 
C        0.014471   -2.984914   -1.096645 
C       -0.922470   -3.184921    0.071398 
C        0.090379   -0.867268   -2.353115 
C       -0.610341   -2.056079   -1.984786 
C        0.145077    1.588620   -2.236258 
C       -0.368131    2.749610   -1.571999 
C       -0.651513    0.413717   -2.332245 
C       -1.450246    3.019855    0.484635 
C       -1.634555    2.759488   -1.012499 
C       -1.796280    1.147199    2.069095 
C       -2.293214    2.194102    1.161321 
C       -2.203708   -1.301708    1.755521 
C       -2.675924    0.007557    1.875419 
C       -2.162058   -2.764032   -0.299277 
C       -2.015977   -1.986854   -1.607211 
C       -2.899989   -1.912342    0.591879 
C       -2.038365    0.472302   -1.846122 
C       -2.501941    1.641328   -1.170769 
C       -3.180553    1.502684    0.146284 
C       -3.541780    0.296643    0.654666 
C       -2.694182   -0.782292   -1.469368 
C       -3.457730   -0.862705   -0.187765 
