46
0 1
C       -2.965519    1.759080   -0.067655 
C       -3.126444    0.879121    0.986401 
C       -2.117025    1.224520    2.047475 
C       -1.866053    2.728387    0.316725 
C       -1.279728    2.274323    1.581728 
C       -1.060127    2.919111   -0.769945 
C       -2.666985    1.264519   -1.406066 
C       -1.524379    2.030271   -1.899634 
C       -2.666096   -0.103557   -1.617415 
C       -3.099532   -0.555341    0.795865 
C       -3.026744   -1.029859   -0.526855 
C       -1.594611    0.000618    2.553359 
C       -2.212924   -1.127787    1.822363 
C       -0.239704   -0.020588    2.873855 
C        0.147316    2.179419    1.717635 
C        0.595816    1.134306    2.578234 
C        0.384121    2.807456   -0.680615 
C        1.017654    2.571586    0.579321 
C       -0.402922    1.450685   -2.472930 
C        0.800871    2.102385   -1.872653 
C       -1.552625   -0.730840   -2.387882 
C       -0.370873    0.018140   -2.754231 
C       -2.317026   -2.260273   -0.760216 
C       -1.412992   -2.058074   -1.950359 
C       -1.433845   -2.247751    1.536385 
C       -1.573517   -2.867289    0.240455 
C        0.544909   -1.246708    2.622885 
C        0.001226   -2.263119    1.866291 
C        1.956567    0.646715    2.461277 
C        1.908118   -0.859484    2.371670 
C        2.351548    2.055016    0.492889 
C        2.820039    1.111538    1.509236 
C        2.040716    1.482889   -1.909486 
C        2.867106    1.585113   -0.753335 
C        0.871110   -0.639895   -2.684215 
C        2.100503    0.095297   -2.394258 
C       -0.126919   -2.632051   -1.632279 
C       -0.186711   -3.141832   -0.283015 
C        0.759375   -2.762667    0.684361 
C        1.016537   -1.927970   -2.000911 
C        2.647562   -1.280459    1.259864 
C        3.404373   -0.096137    0.793390 
C        3.495598    0.214183   -0.532473 
C        2.914926   -0.668225   -1.521992 
C        2.013030   -2.159275    0.282289 
C        2.164279   -1.855498   -1.095530 
