94 

C -2.53893 -3.89132 1.15002
C -3.09419 -2.91818 1.94569
C -4.02160 -1.95765 1.38933
C -3.95280 -.80355 2.24477
C -4.35098 .42449 1.77439
C -1.20404 -4.33089 1.40252
C -2.27584 -2.24666 2.91393
C -.92320 -2.52665 3.05286
C -.37283 -3.66001 2.32101
C 1.89045 -2.79322 2.75390
C 1.06801 -3.74785 2.11953
C 1.57678 -4.35208 .95089
C -3.03454 3.63342 1.02491
C -3.92099 2.61132 1.19640
C -3.65653 1.59760 2.19943
C -2.79249 -.90329 3.07427
C 1.31094 -1.66484 3.46691
C -.05369 -1.43202 3.50191
C -.53428 -.04399 3.52037
C -1.95109 .20038 3.28481
C -2.40762 1.50239 2.85826
C .38788 1.03522 3.41080
C -1.43990 2.57410 2.66958
C -1.82622 3.67550 1.83088
C -4.16758 2.31773 -1.22843
C -3.18964 3.37933 -1.42590
C -4.55319 1.96417 .04545
C -2.70774 4.10489 -.31323
C -1.37520 4.52719 -.29413
C -.49246 4.20359 -1.36943
C .88758 4.35273 -1.11060
C .50473 4.21070 1.34328
C -.87471 4.36162 1.08349
C 1.38826 4.52577 .26613
C 2.24323 -.59445 3.41520
C 1.80902 .74163 3.40401
C -.06280 2.35580 2.92489
C 2.73439 1.67979 2.90242
C 2.29093 2.95933 2.39684
C .91117 3.28065 2.35000
C -3.36375 -1.02550 -2.62941
C -4.09378 -.10311 -1.87229
C -3.87184 1.26738 -2.17855
C -.90109 3.26774 -2.36981
C -2.28157 2.94896 -2.41402
C -2.72811 1.66692 -2.91055
C .07100 2.33686 -2.93826
C -1.80502 .72330 -3.40556
C -2.24279 -.61187 -3.40711
C -4.52190 -.47791 -.52028
C -4.74662 .56592 .39007
C -3.11185 -2.37624 -2.16575
C -3.50117 -2.78332 -.86392
C -4.17786 -1.80843 .00234
C -2.75733 -3.83461 -.28736
C -1.89519 -2.80705 -2.73076
C -1.07490 -3.75911 -2.08972
C -1.58500 -4.35470 -.91716
C .66878 -4.78617 -.09406
C -.67813 -4.78404 .13070
C 2.27193 -2.27044 -2.89434
C .91874 -2.54845 -3.03121
C .36593 -3.67575 -2.29170
C 1.19557 -4.34258 -1.36879
C 1.83771 3.65995 -1.85328
C 1.44867 2.55381 -2.68442
C -.38315 1.01381 -3.41448
C 2.41371 1.47848 -2.86529
C 1.95373 .17460 -3.28257
C .53615 -.06823 -3.51629
C .05194 -1.45503 -3.48795
C -1.31321 -1.68480 -3.45145
C 2.79209 -.92955 -3.06410
C 4.35386 .40326 -1.77333
C 3.95244 -.82685 -2.23521
C 4.01828 -1.97521 -1.37197
C 3.08843 -2.93729 -1.92158
C 2.53124 -3.90411 -1.11942
C 3.04566 3.62052 -1.04652
C 3.92945 2.59494 -1.21058
C 3.66249 1.57513 -2.20667
C 4.17552 2.31657 1.21650
C 3.19984 3.38148 1.40629
C 2.71966 4.10088 .28862
C 4.55994 1.95379 -.05505
C 3.36334 -1.01579 2.64038
C 4.09568 -.10012 1.87707
C 3.87729 1.27305 2.17375
C 2.75010 -3.83858 .31746
C 4.17525 -1.81747 .01395
C 3.49637 -2.78523 .88675
C 3.10812 -2.36894 2.18577
C 4.74975 .55277 -.38999
C 4.52249 -.48454 .52751
