94 

C -2.74476 -3.68658 -.43270
C -3.33684 -2.73261 -1.31594
C -4.35795 -1.90369 -.77351
C -4.71217 -.69176 -1.38827
C -4.03076 -.27530 -2.54952
C -1.49886 -4.23273 -.70018
C -.68346 -3.74983 -1.78417
C -1.19955 -2.72271 -2.61917
C -2.56931 -2.26840 -2.43279
C -2.96068 -1.04882 -3.04338
C 1.07483 -2.16902 -3.34454
C -.26596 -1.85728 -3.35470
C 1.60792 -3.21890 -2.52185
C .75563 -3.96167 -1.67608
C 1.30605 -4.41245 -.45104
C -4.66564 1.59580 -.50688
C -4.03489 2.04995 -1.74734
C -4.98841 .27552 -.33500
C -3.68835 1.13340 -2.71636
C -2.37916 1.21073 -3.30712
C .95595 2.82976 -2.66080
C 2.30280 2.45964 -2.73802
C -.04335 1.91413 -3.19974
C -1.44405 2.19641 -2.96402
C -1.84365 3.21585 -2.00268
C -3.12265 3.11453 -1.42172
C -.63299 -.46568 -3.66657
C -1.96195 -.12850 -3.57508
C 2.10049 -1.15339 -3.49756
C 1.75042 .23127 -3.60249
C .35122 .60485 -3.62127
C 2.70029 1.15986 -3.19324
C -2.29688 3.99433 .69018
C -4.08344 2.35423 .58864
C -3.30890 3.40419 -.01467
C -.81894 3.96513 -1.28801
C .57661 3.82148 -1.66492
C -1.11528 4.44199 .00370
C -1.91289 3.45729 1.97287
C -2.47827 2.27925 2.46007
C -3.65945 1.73788 1.77566
C -4.04568 .34131 1.98844
C -4.73279 -.36114 .94286
C -3.30410 -.42361 2.89019
C -.52811 3.76953 2.17292
C .33495 2.90132 2.83732
C -.22193 1.66338 3.38351
C -1.61999 1.40939 3.24805
C -2.09214 .09453 3.50586
C 2.06948 .72729 3.47951
C .67294 .54654 3.65995
C 1.22416 4.49149 .62666
C -.08687 4.51783 1.00431
C 2.19780 3.82118 1.46256
C 1.76579 3.00842 2.53431
C 2.61667 1.95192 2.90573
C 1.56086 4.26278 -.75454
C -3.13946 -1.83366 2.72016
C -3.65201 -2.47892 1.57375
C -4.45833 -1.71575 .68709
C -2.89901 -3.55709 1.03012
C -1.84944 -2.18288 3.23125
C -1.09133 -3.20922 2.67713
C -1.70790 -3.98064 1.63373
C .45728 -4.57772 .71777
C -.89401 -4.55593 .58627
C .18871 -.79216 3.68437
C -1.21680 -.97089 3.71147
C 2.90551 -.33522 3.14840
C 2.38604 -1.64924 2.92271
C 1.02082 -1.90165 3.24301
C .37307 -3.10672 2.72167
C 1.09720 -3.91484 1.84429
C 4.01404 .21035 2.36653
C 4.58413 -.53271 1.37613
C 4.14626 -1.90168 1.16510
C 3.08805 -2.48368 1.96299
C 2.41659 -3.57037 1.41840
C 3.26963 3.40480 .62014
C 4.03542 2.26189 .91876
C 3.77062 1.62941 2.16741
C 4.17478 1.77381 -1.49930
C 3.27558 2.88237 -1.76636
C 2.89010 3.72069 -.75341
C 4.85713 .06831 .07591
C 4.55028 1.44222 -.18468
C 3.22791 -1.56591 -2.78380
C 4.65267 -.93033 -.88833
C 4.09434 -.60600 -2.16089
C 3.87484 .74983 -2.45258
C 2.55222 -3.90517 .00611
C 4.24891 -2.16806 -.19828
C 3.37679 -3.12289 -.82871
C 2.91509 -2.84550 -2.13858
