94 

C 4.95826 -.86814 -.67779
C 4.35482 -1.97896 -1.40771
C 4.95479 -.87277 .70685
C 3.83967 -3.05722 -.72643
C 2.61525 -3.66157 -1.17704
C 3.10336 .82041 -3.20981
C 4.65307 .34270 -1.37969
C 3.96719 -.04877 -2.60340
C -.12237 -4.17776 -1.17729
C .37960 -3.32687 -2.16804
C 1.81512 -3.06849 -2.17702
C 2.32969 -1.89796 -2.85813
C 3.62549 -1.44335 -2.52707
C 1.83670 .34849 -3.69414
C 1.39566 -.95717 -3.45389
C 2.93360 2.15468 -2.68032
C 3.48924 2.50789 -1.43580
C 4.31205 1.53162 -.70951
C 4.30835 1.52680 .75178
C 4.64598 .33333 1.41551
C 2.81906 3.52757 -.71012
C -.42810 1.29723 -3.52447
C .93252 1.47042 -3.64791
C 1.61546 2.58145 -3.03635
C -1.21900 2.35056 -2.87992
C .90778 3.50358 -2.26697
C 1.60820 4.07869 -1.15759
C -.92530 -.07133 -3.58371
C -2.29813 -.25139 -3.39684
C -2.82599 -1.46889 -2.94632
C -1.48340 -4.08181 -.72787
C -.04368 -1.19149 -3.40308
C -.55561 -2.40291 -2.82000
C -3.60500 -2.97839 -.72471
C -2.43258 -3.34659 -1.43854
C -1.96407 -2.51165 -2.53702
C 2.81525 3.52282 .75799
C 3.48177 2.49836 1.48037
C 2.91993 2.13700 2.71975
C 3.08694 .79893 3.24078
C 3.95371 -.06635 2.63284
C -.47555 4.53213 .01868
C .87953 4.51614 .02215
C 1.60212 4.07106 1.20276
C .89598 3.48869 2.30488
C 1.59985 2.56147 3.07178
C -2.46658 3.71916 -.72804
C -1.21876 4.11762 -1.16621
C -3.16504 .83613 -2.95509
C -2.61018 2.07129 -2.54569
C -.54630 3.42227 -2.23881
C -3.23022 2.74814 -1.44740
C -4.28342 2.12071 -.73895
C 3.83592 -3.06209 .73398
C 4.34747 -1.98855 1.42567
C 3.61231 -1.46044 2.54481
C 1.81770 .32385 3.71504
C 1.37789 -.98006 3.46298
C 2.31483 -1.91709 2.86548
C .36857 -3.34086 2.15494
C 1.80387 -3.08287 2.17334
C 2.60919 -3.66955 1.17362
C -.12817 -4.18515 1.15585
C .66113 -4.48326 -.00966
C 1.99895 -4.23031 -.00526
C -1.22493 4.10976 1.19683
C -.55800 3.40764 2.26855
C -1.23403 2.33165 2.89891
C -.44622 1.27394 3.54017
C .91374 1.44615 3.67205
C -.56975 -2.42122 2.80863
C -.94357 -.09498 3.58693
C -.06100 -1.21391 3.40286
C -2.62349 2.05448 2.55524
C -3.18023 .81653 2.95311
C -2.31535 -.27386 3.39169
C -2.84063 -1.48836 2.92997
C -1.97664 -2.52825 2.51785
C -4.84537 .89543 1.17071
C -4.28726 2.11586 .73998
C -3.23787 2.73860 1.45818
C -2.47050 3.71439 .74936
C -4.29240 .24735 2.29094
C -4.28069 .26279 -2.30270
C -5.21316 .12298 -.00861
C -4.83932 .90358 -1.18084
C -4.10574 -1.19405 2.26777
C -4.47716 -1.91555 1.15650
C -5.03103 -1.24592 -.01280
C -4.47137 -1.90756 -1.18378
C -4.09437 -1.17871 -2.28841
C -2.43949 -3.35597 1.41144
C -1.48687 -4.08638 .70036
C -3.60845 -2.98304 .69448
