94 

C -2.87246 3.38926 .98846
C -1.73734 3.62179 1.76967
C -.69584 4.37677 1.16275
C .66163 4.33434 1.66198
C .95450 3.53953 2.73838
C -3.76005 2.28595 1.26223
C -3.41893 1.29795 2.17956
C -2.17151 1.45919 2.95680
C -1.40345 2.66181 2.81041
C -.07724 2.68041 3.30220
C -2.19911 -.96682 3.39261
C -1.53219 .29511 3.50839
C -3.41249 -1.12001 2.61494
C -3.99909 -.03660 1.97639
C -4.73223 -.31093 .76833
C 4.03969 1.80589 1.58069
C 3.15790 2.90251 1.72942
C 2.21439 2.81665 2.78055
C 1.96747 1.58031 3.42769
C 2.05194 -.88599 3.21080
C 2.70147 .42486 3.12031
C 3.82814 .59743 2.28763
C 1.91732 -3.18646 2.38524
C 2.66286 -1.99866 2.53392
C -.12188 .27398 3.76223
C .55262 1.49873 3.73418
C -1.49589 -2.15884 3.34770
C -.05570 -2.18033 3.41292
C .66037 -.95972 3.59912
C .58595 -3.28094 2.81770
C 2.80373 3.67706 .53865
C 1.56485 4.35789 .52027
C 4.62602 1.46020 .29207
C 4.24672 2.15064 -.83013
C 3.30983 3.25619 -.71362
C 4.76877 .01649 .23477
C 4.55389 -.71013 -.96403
C 4.19767 -2.07079 -.82441
C 3.76286 -1.78144 1.58540
C 4.32048 -.49972 1.47531
C 3.87087 -2.61733 .44445
C 2.46474 3.21827 -1.85227
C 1.13576 3.67082 -1.80426
C .76363 4.38915 -.64819
C .10318 2.97859 -2.58920
C -1.28666 3.23941 -2.28484
C -2.26115 2.40238 -2.84658
C 2.83416 2.07677 -2.66210
C 2.13990 .00611 -3.64688
C 1.85168 1.35624 -3.36067
C .45806 1.79656 -3.31904
C -.56430 .83156 -3.65076
C -1.89185 1.18536 -3.47113
C 4.09335 .02188 -2.14643
C 3.93553 1.42307 -2.05042
C 3.25749 -.64819 -3.07491
C -1.65378 3.96177 -1.06502
C -.62737 4.46586 -.24481
C -3.57471 2.20684 -2.25540
C -3.85375 2.78283 -1.03280
C -2.86933 3.64419 -.41887
C -3.97728 .83452 -2.51420
C -4.46843 1.99069 .02108
C -4.91198 .71916 -.23502
C -4.69349 .12070 -1.54259
C 1.07170 -.96733 -3.79560
C -.25878 -.60117 -3.72677
C -2.59377 -1.15966 -2.99332
C -2.92738 .19267 -3.21973
C -.75129 -2.81818 -2.72843
C -1.22548 -1.59050 -3.27137
C -1.62043 -3.57351 -1.87023
C -2.88164 -3.11768 -1.52566
C -3.41611 -1.91136 -2.08826
C -4.42188 -1.25042 -1.34335
C 2.53763 -3.70932 -1.17071
C 3.38520 -2.75732 -1.82969
C 2.90387 -2.05066 -2.90572
C 1.19946 -3.89974 -1.54074
C .66685 -3.09840 -2.64188
C 1.53726 -2.22567 -3.30483
C .72449 -4.50719 .84638
C 2.04315 -4.02855 1.20612
C 2.94009 -3.70912 .23214
C -1.08528 -4.31669 -.73751
C .27991 -4.42643 -.52192
C -2.23480 -3.09172 2.49661
C -2.02114 -4.20408 .34709
C -1.54221 -4.00456 1.67159
C -.14020 -4.16911 1.89399
C -4.56623 -1.53128 .09699
C -3.14883 -3.49523 -.13473
C -3.87170 -2.61974 .70711
C -3.40262 -2.43200 2.03541
