94 

C -4.21642 1.73458 -1.55085
C -4.73509 .86806 -.56807
C -4.74558 -.51807 -.88468
C -4.80745 -1.55127 .14266
C -4.61796 -1.19220 1.46270
C -3.74455 3.06737 -1.23096
C -3.64901 3.44764 .09958
C -3.96565 2.47351 1.12759
C -4.58109 1.24865 .83352
C -4.40509 .20687 1.79256
C -3.43188 -3.58717 .45135
C -3.18747 -3.17672 1.84066
C -4.13056 -2.72914 -.38659
C -3.70186 -1.96669 2.28992
C -3.34751 .27163 2.72068
C -.06507 -4.60516 .96363
C -2.26244 -4.23826 -.03088
C -1.39133 -4.40593 1.12685
C 2.72899 -1.89664 2.39629
C .45018 -2.80238 2.63139
C .87926 -3.93253 1.83666
C 3.59852 -.79813 2.48749
C -2.93915 2.54465 2.13157
C -2.49157 1.39132 2.79030
C -2.84829 -1.06103 2.96807
C -.19499 2.28255 2.81020
C -1.07772 1.20786 3.07371
C -.55233 -.16509 3.24521
C -1.47004 -1.30222 3.14163
C -.97610 -2.60302 2.80012
C -1.86613 -3.53571 2.19308
C 1.74660 .73818 3.13769
C .83711 -.40114 3.18882
C 1.35234 -1.74429 2.86150
C 3.11577 .50382 2.90411
C .50448 -4.68630 -.36758
C -.27179 -4.21400 -1.48229
C -1.69147 -3.91176 -1.28118
C -2.32034 -2.86918 -2.06698
C -3.55518 -2.37238 -1.64130
C .41413 -3.54482 -2.49656
C 1.85760 -4.35387 -.23540
C 3.70654 -2.93038 -.94847
C 2.56101 -3.70387 -1.29148
C 1.82448 -3.31197 -2.42639
C 3.06735 -2.92468 1.45653
C 2.08295 -3.90509 1.15326
C 4.04958 -2.67142 .46213
C -.18692 -2.40279 -3.16318
C -1.49293 -2.00422 -2.92133
C -1.81822 -.61171 -3.12507
C -3.13175 -.15427 -2.70182
C -3.96759 -1.01693 -1.95326
C -3.37508 1.21428 -2.58397
C .83651 -1.46115 -3.44458
C .59988 -.08559 -3.40705
C -.76823 .34940 -3.33627
C .05823 2.65880 -2.77358
C -1.02791 1.76895 -3.13565
C -2.34206 2.17607 -2.87373
C -.26464 3.86196 -2.12711
C -1.60382 4.17430 -1.72512
C -2.64299 3.36099 -2.12908
C 2.37777 2.88202 -1.85645
C 3.92823 .99023 -1.98648
C 2.98840 .21379 -2.69603
C 1.71302 .80038 -3.03685
C 1.42911 2.15121 -2.65850
C 3.61225 2.28776 -1.54409
C 2.09213 -2.04009 -3.03941
C 4.07815 -1.80698 -1.69914
C 3.15329 -1.23871 -2.64097
C 4.29708 2.52884 -.26918
C 3.67108 3.29448 .68958
C 2.49204 4.05130 .33203
C 1.91733 3.93964 -.96699
C .61182 4.39671 -1.10722
C 4.87849 -.95538 -.83908
C 4.99006 1.30910 .10316
C 4.86442 .40055 -1.02614
C 3.44044 2.72820 2.00915
C 3.96453 1.47956 2.31898
C 4.87013 .81189 1.39774
C 4.68295 -.61597 1.59213
C 4.82803 -1.50046 .50870
C -2.02540 3.58167 1.78328
C -.67733 3.48066 2.10736
C 2.11411 3.04393 2.39629
C 1.23796 2.06324 2.91725
C -.17707 4.74028 .03187
C -1.56177 4.66166 -.35875
C -2.49297 4.19833 .55101
C 1.61791 4.01978 1.44084
C .24636 4.25476 1.29157
