94 

C 3.28641 3.19104 -.31323
C 2.25212 3.68273 -1.12329
C 1.26567 4.46510 -.47423
C -.01996 4.71482 -1.07989
C -.32325 4.11535 -2.28812
C 4.07255 2.04685 -.70629
C 3.69477 1.25137 -1.78359
C 2.52583 1.66660 -2.58882
C 1.88950 2.92940 -2.31363
C .61911 3.17854 -2.87228
C 2.31537 -.65527 -3.38150
C 1.79833 .67853 -3.32539
C 3.45832 -1.05944 -2.59001
C 4.11380 -.15593 -1.76134
C 4.72997 -.68914 -.57678
C -2.29703 4.29805 -.26041
C -2.64785 3.74909 -1.56766
C -1.00830 4.71575 -.01477
C -1.65946 3.59390 -2.52066
C -1.53431 2.33236 -3.19179
C -2.65114 -1.22316 -2.75631
C -2.06909 -2.50130 -2.84995
C -1.88839 -.09434 -3.22484
C -2.38085 1.25087 -2.93430
C -3.48747 1.44857 -2.01335
C -3.59866 2.69533 -1.36459
C .40215 .85471 -3.61932
C -.13085 2.12808 -3.46088
C 1.48327 -1.75071 -3.54957
C .05074 -1.59403 -3.64939
C -.51959 -.27874 -3.63543
C -.73250 -2.68446 -3.26949
C -4.49541 1.65092 .63646
C -2.99068 3.54860 .74273
C -3.96206 2.74648 .03603
C -4.12903 .29319 -1.39492
C -3.74520 -1.04176 -1.80018
C -4.75027 .46149 -.14003
C -4.04651 1.26441 1.95699
C -2.85395 1.81023 2.47969
C -2.31780 3.01686 1.86436
C -.93030 3.37815 2.07516
C -.35550 4.30921 1.19756
C -.55210 1.25699 3.35455
C -.03770 2.49176 2.83623
C 1.39013 2.67457 2.73060
C 2.24470 1.67592 3.23774
C -4.37362 -.12124 2.09998
C -3.57377 -.92889 2.88679
C -2.37784 -.38232 3.45419
C -1.97300 .94176 3.22762
C .35793 .18449 3.65903
C 1.72726 .43219 3.64016
C -4.52529 -1.89383 .40065
C -4.83522 -.61464 .80381
C -4.07040 -2.11591 -.94426
C 1.94595 3.55031 1.70664
C 1.06240 4.30133 .92609
C 3.58919 1.44479 2.72665
C 4.02735 2.16910 1.63818
C 3.18774 3.21874 1.10730
C 3.84784 .01641 2.79475
C 4.64614 1.48663 .51204
C 4.93877 .14977 .58662
C 4.56695 -.61420 1.76797
C -1.41115 -1.45800 3.52076
C -.05771 -1.20773 3.54779
C 2.26238 -1.88142 2.87929
C 2.69327 -.61261 3.32447
C .30478 -3.30289 2.27949
C .84902 -2.21636 3.01671
C 1.15218 -3.99573 1.35310
C 2.46850 -3.61404 1.14355
C 3.07351 -2.56779 1.91550
C 4.18269 -1.90332 1.33819
C -2.96829 -3.64418 .48449
C -3.79357 -2.79226 1.29082
C -3.30403 -2.30544 2.49196
C -1.66669 -4.00300 .86334
C -1.12844 -3.44120 2.10004
C -1.95604 -2.61425 2.86774
C -1.10879 -4.22320 -1.57346
C -2.34668 -3.53641 -1.88461
C -3.27240 -3.31749 -.91113
C .61814 -4.48908 .09116
C -.73775 -4.42565 -.19629
C 2.07167 -2.87995 -2.83735
C 1.62289 -4.29480 -.91678
C 1.24287 -3.83321 -2.20733
C -.15491 -3.80286 -2.50861
C 4.39718 -1.97408 -.11848
C 2.78248 -3.79073 -.27538
C 3.63969 -2.87416 -.92803
C 3.27550 -2.43376 -2.22835
