94 

C -3.57316 .46517 2.66349
C -2.84122 -.55957 3.28028
C -4.09016 2.52733 .75363
C -3.33166 2.81367 1.85472
C -3.07712 1.78470 2.84075
C -.32702 4.32642 .33179
C -2.14417 3.62013 1.72420
C -1.68949 4.03103 .44335
C -2.41910 3.60633 -.74920
C -1.66538 3.29338 -1.95984
C -3.67127 2.99546 -.56159
C -2.23690 2.40758 -2.88098
C -1.78036 2.01548 3.36123
C -.94587 .94906 3.75867
C -1.54980 -.32346 3.82874
C .48954 1.04274 3.58553
C 1.24927 -.17549 3.57688
C 2.61247 -.11261 3.25310
C -1.21431 3.16537 2.69566
C .58620 4.06958 1.39999
C .17768 3.28056 2.50749
C 1.06697 2.24969 3.00922
C 2.43501 2.23872 2.54947
C 3.22514 1.09978 2.81439
C .59877 -1.47390 3.46496
C -.77345 -1.51891 3.66974
C -1.61122 -2.51375 3.04856
C 1.23283 -2.55165 2.70312
C -1.05507 -3.49185 2.21091
C -1.89453 -3.98989 1.17956
C 3.30416 -1.21797 2.68164
C 2.59589 -2.37992 2.26760
C .39791 -3.53966 2.06062
C .90767 -4.21845 .92578
C .03935 -4.51816 -.20378
C -1.31253 -4.42841 -.08119
C 4.42478 -.69493 1.94265
C 4.81904 -1.30331 .76019
C 4.09753 -2.45684 .30101
C 3.06342 -3.04556 1.07627
C 2.16559 -3.88742 .38562
C 4.71498 1.52641 .92380
C 4.37328 .75239 2.02985
C 1.87590 3.91386 .83675
C 2.84205 3.08109 1.43494
C 3.91668 2.66508 .60331
C -2.87177 -1.92265 2.77719
C -3.13248 -3.36914 .88027
C -3.60336 -2.25588 1.62446
C -3.29944 -3.40852 -.56900
C -4.01948 -2.43312 -1.19258
C -2.08817 -3.89093 -1.16516
C -4.67983 -1.39104 -.41634
C -4.38567 -1.20719 .94949
C -4.38376 .15003 1.47896
C -4.86296 -.28609 -1.30250
C -4.88773 1.00145 -.79598
C -4.69875 1.21135 .60603
C -4.14046 -.57007 -2.54168
C -4.22772 2.08671 -1.52069
C -3.52225 1.80665 -2.67816
C -3.45986 .44315 -3.18411
C -3.52540 -1.86136 -2.42011
C -2.19908 -2.10548 -2.84364
C -1.46469 -3.18632 -2.21791
C .68036 -4.04819 -1.40217
C -.01405 -3.23588 -2.32275
C 2.14837 -2.07226 -2.78920
C .71872 -2.17222 -2.98590
C -.01271 -1.03086 -3.49109
C -1.46437 -1.02452 -3.47008
C -2.12480 .20353 -3.65909
C 2.81234 -.89177 -3.19293
C 2.06510 .25779 -3.53805
C .67103 .22163 -3.64858
C 4.62260 -1.17229 -1.57010
C 3.97440 -2.37686 -1.12683
C 2.80794 -2.87434 -1.77537
C 2.03423 -3.78857 -1.05220
C 4.05234 -.44570 -2.60206
C 4.53075 1.65584 -1.41148
C 5.11723 .88476 -.32373
C 5.16468 -.49291 -.40381
C 4.00803 1.00498 -2.52600
C 1.74570 3.98017 -.59785
C 2.61289 3.23068 -1.43459
C 3.80070 2.74525 -.84078
C -1.41023 1.44584 -3.55789
C -.02944 1.47749 -3.47443
C .60381 2.58503 -2.78305
C -.21869 3.45638 -1.99228
C .38727 4.14995 -.91072
C 2.75775 1.43097 -3.07643
C 2.03464 2.52716 -2.55162
