94 

C 1.66961 4.51846 .42564
C .94213 4.63092 -.82750
C .97188 4.36160 1.60414
C -.42638 4.76138 -.83100
C -1.19068 4.05965 -1.82232
C 4.17884 1.77291 .65281
C 3.30634 2.75933 1.13125
C 2.83357 3.69475 .17525
C 2.81403 3.32624 -1.19638
C 3.45872 2.17198 -1.65290
C 4.34940 1.55074 -.74406
C 4.33266 -.52695 -2.01227
C 4.78519 .18283 -.92666
C -2.79780 1.98767 -2.75578
C -1.44452 1.98222 -3.12142
C -.60631 3.07395 -2.64957
C .83356 2.91231 -2.61787
C 1.57138 3.76419 -1.78428
C .60740 .59237 -3.57380
C 1.45040 1.66040 -3.06921
C 2.80267 1.37264 -2.68111
C 3.32579 .06789 -2.88868
C 2.48446 2.45378 2.29349
C 1.34457 3.28433 2.51633
C 4.35134 .52215 1.34923
C 3.49807 .16416 2.39151
C 2.50017 1.14665 2.85833
C 1.31202 .67462 3.55000
C 1.20987 -.69991 3.86812
C 4.84687 -.44433 .38602
C 4.54904 -1.77988 .53147
C 3.77862 -2.20401 1.67393
C 3.28157 -1.26383 2.61221
C 2.17680 -1.66903 3.37435
C .09626 1.42742 3.51917
C .17052 2.76552 3.07071
C -.03104 -1.33099 3.99230
C -1.25044 -.63447 3.74111
C -1.19516 .77114 3.51808
C -2.33608 1.45423 2.87877
C -3.42473 .69661 2.49228
C .14694 -2.71691 3.58652
C -.87082 -3.38003 2.96235
C -2.17916 -2.76355 2.86883
C -2.38005 -1.41972 3.25852
C -3.45097 -.73309 2.64567
C 2.95789 -3.28549 1.25325
C 1.75876 -3.58767 1.90346
C 1.49614 -2.87834 3.10688
C -2.16865 2.77538 2.25010
C -.97445 3.45201 2.48505
C -.47528 4.45824 1.60425
C -2.94978 3.13949 1.07814
C -2.41727 4.09362 .18698
C -1.16370 4.73264 .42796
C -4.21409 1.02807 1.31537
C -3.92699 2.19111 .55114
C -4.14017 2.11530 -.83778
C -3.29639 2.87188 -1.73553
C -2.49584 3.86146 -1.24846
C -4.62324 -.17289 .71716
C -4.27785 -1.56532 -1.27710
C -4.64180 -.30017 -.70610
C -4.38677 .85162 -1.46507
C -2.80471 -3.27321 1.69390
C -3.78013 -2.52861 1.00826
C -4.16677 -1.28086 1.56219
C -3.86852 -2.69706 -.41954
C -2.77117 -2.85000 -2.41933
C -3.55393 -1.62786 -2.46587
C -3.02268 -.43067 -3.07667
C -3.55227 .77503 -2.64751
C -1.57638 -2.90584 -3.05180
C -1.82318 -4.06040 .96334
C -1.79007 -4.05550 -.42658
C -2.92465 -3.45688 -1.10448
C 3.09468 -3.44005 -.18837
C 1.96544 -3.72798 -.99270
C .70941 -4.12150 -.34147
C .63972 -4.11058 1.11954
C -.61705 -4.10345 1.72727
C -.45761 -3.63553 -2.46432
C -.49906 -4.10409 -1.09391
C 2.91771 -2.21938 -2.69683
C 4.02349 -1.94011 -1.87565
C 4.12033 -2.56336 -.61828
C .68634 -3.07791 -2.99207
C 1.93480 -3.15749 -2.30547
C -1.67114 -.44075 -3.61708
C -.85023 .72761 -3.55934
C -1.04781 -1.72800 -3.73695
C .32179 -1.86078 -3.75173
C 1.16881 -.71239 -3.71774
C 2.51221 -.95879 -3.35580
