94 

C 3.93392 1.77782 1.21759
C 4.73153 .95464 .39947
C 4.94402 -.42877 .69955
C 3.30875 1.19086 2.39836
C 3.60883 -.13187 2.71115
C 4.42490 -.95661 1.87093
C 1.66817 2.99938 2.47692
C 2.05563 1.76021 2.94107
C 1.03524 .89636 3.56379
C 1.36821 -.49524 3.76459
C 2.62151 -.99158 3.34508
C .33505 -1.43946 3.88606
C .30736 3.43910 2.54656
C -2.01560 2.85567 2.66115
C -.70198 2.60572 3.08395
C -.34192 1.28800 3.57750
C -1.40213 .27609 3.67301
C -1.03345 -1.04653 3.85103
C 4.25637 -2.43726 -.52717
C 3.75683 -3.00726 .70873
C 4.83999 -1.18678 -.53763
C 3.86152 -2.29173 1.88337
C 2.74437 -2.29240 2.80097
C 1.58580 -3.08236 2.55873
C .43928 -2.71567 3.26281
C 1.78849 -2.11498 -3.27688
C 3.01364 -1.89425 -2.60544
C 3.34772 -2.80487 -1.58639
C 2.33039 -3.65191 -1.02277
C -.09727 -3.95184 -.72102
C 1.05374 -3.73385 -1.58308
C .87479 -3.08697 -2.84027
C -2.52838 -3.71304 -.42362
C -1.43652 -3.74158 -1.28560
C 1.43199 -3.75338 1.26055
C 2.52385 -3.71802 .39893
C -.87887 -3.11169 2.82137
C -1.05830 -3.74708 1.55820
C .09251 -3.95805 .69424
C -2.33491 -3.65966 .99851
C 3.54974 -.54100 -2.57499
C 4.52782 -.25380 -1.60422
C 4.64683 1.06231 -1.04849
C 2.74551 .55837 -3.11123
C 3.03376 1.85023 -2.68292
C 3.95081 2.10140 -1.61235
C 1.03057 -1.01228 -3.85068
C 1.40012 .30852 -3.66069
C .34068 1.32027 -3.55622
C .70159 2.63340 -3.05090
C 2.01539 2.87864 -2.62597
C -.30717 3.46278 -2.50645
C -.33801 -1.40415 -3.88937
C -2.62413 -.95985 -3.34502
C -1.37052 -.46026 -3.75963
C -1.03661 .92940 -3.54626
C -2.05638 1.78840 -2.91592
C -1.66830 3.02325 -2.44074
C -1.58979 -3.05872 -2.57769
C -.44300 -2.68612 -3.27810
C -2.74773 -2.26553 -2.81276
C 2.27877 3.62155 1.30940
C 3.34206 2.96827 .61286
C 3.40047 3.14125 -.77671
C 2.27354 3.69947 -1.48332
C -.06278 4.29660 -1.39427
C 1.21895 4.32733 -.79203
C 1.28992 4.35263 .64553
C -1.28925 4.35942 -.59727
C -1.21819 4.32044 .84008
C .06347 4.28308 1.44190
C -2.27312 3.68686 1.52584
C -2.27861 3.63496 -1.26762
C -3.34217 2.97580 -.57687
C -3.40045 3.13592 .81424
C -4.42732 -.93689 -1.87069
C -3.61080 -.10493 -2.70323
C -3.30986 1.21489 -2.37829
C -4.94633 -.41934 -.69450
C -4.73310 .96115 -.38185
C -3.93494 1.79137 -1.19222
C -4.26000 -2.43938 .51380
C -3.76080 -2.99853 -.72720
C -3.86489 -2.27224 -1.89525
C -4.84279 -1.18867 .53574
C -1.79210 -2.14343 3.26678
C -3.01709 -1.91611 2.59708
C -3.35171 -2.81717 1.56970
C -3.95152 2.08880 1.64043
C -3.03480 1.82737 2.70889
C -2.74745 .53153 3.12557
C -4.64836 1.05543 1.06709
C -4.53015 -.26576 1.61088
C -3.55242 -.56245 2.57904
