94 

C -3.35797 1.75089 1.98697
C -4.07799 2.56961 .93354
C -1.93609 .13812 4.12183
C -1.30671 1.39739 3.56515
C -2.01064 2.19395 2.49886
C -1.39057 3.47301 1.99528
C -.07351 3.96025 2.56561
C 1.06361 .51015 4.13983
C .14946 1.67591 3.83820
C .72315 3.03767 3.49985
C 2.54014 .62817 3.84916
C 3.09110 1.91738 3.25269
C 2.18562 3.10823 3.06623
C .47389 -.88045 4.14984
C 1.25660 -1.97536 3.46159
C -1.01107 -1.04811 4.40718
C .60597 -3.31843 3.19959
C -1.94389 4.12198 .74833
C -3.27330 3.64808 .20121
C .91783 4.58074 1.58526
C .46956 4.96479 .19634
C -.99999 4.84189 -.19832
C 3.13367 3.03272 -1.98720
C 1.31089 4.58136 -.98606
C 2.56200 3.75241 -.78522
C 2.95610 3.31884 .60999
C 3.88307 2.13596 .80269
C 2.28473 3.94161 1.79641
C 4.10564 1.56684 2.19348
C -1.03500 4.41911 -1.66687
C -2.12428 3.47654 -2.12439
C -3.40336 3.42367 -1.30562
C -4.38562 2.26987 -1.51254
C -4.13419 1.26401 -2.61647
C .37821 4.23775 -2.14285
C 2.19774 2.68317 -3.14415
C .73653 3.06966 -3.03762
C -.32953 2.05545 -3.37865
C -1.77030 2.33552 -3.01191
C -2.81757 1.30549 -3.32944
C -5.17030 .32665 .08426
C -4.96825 -.67788 -1.04202
C -4.82581 1.78099 -.13866
C -4.45607 -.21745 -2.38938
C -3.35130 -1.00503 -3.03173
C -4.48589 -1.99958 -.43539
C -3.31701 -2.71881 -1.08300
C -2.77192 -2.23399 -2.38071
C .86463 -2.26725 -4.01642
C -.55260 -1.85518 -3.68227
C -1.44870 -2.76545 -2.87651
C -.91880 -4.06565 -2.31250
C 2.60016 1.31280 -3.68351
C 1.52296 .29464 -3.99496
C .06726 .66039 -3.80882
C -.97676 -.42568 -3.90760
C -2.44912 -.07590 -3.83040
C 1.92380 -1.16461 -4.10123
C -3.19882 -.40730 3.45203
C -3.88595 .38553 2.36056
C -4.79665 -.35246 1.39905
C -4.44744 -1.80579 1.08116
C -3.39448 -2.50404 1.91549
C -3.03341 -1.91412 3.26590
C -.90169 -3.44862 3.33869
C -1.70921 -2.30855 3.90884
C -1.39101 -4.45124 -.91166
C -2.46488 -3.65005 -.24539
C -2.47170 -3.51014 1.26383
C -1.38436 -4.17336 2.09160
C 1.07310 -4.72666 -.96906
C -.17778 -4.90557 -.10781
C -.12361 -4.59290 1.35278
C 2.19103 -3.90415 -.35817
C 2.14142 -3.56824 1.11180
C .99250 -4.07031 1.94881
C 2.85701 -2.99910 -2.72115
C 1.47243 -3.41555 -3.21349
C .59166 -4.28868 -2.35089
C 4.27288 -2.34876 -.62821
C 3.17825 -3.18898 -1.25155
C 3.81300 .84484 -2.88013
C 4.69005 -1.05157 -1.31201
C 3.99493 -.62800 -2.58596
C 3.15676 -1.63577 -3.33963
C 4.31444 .05904 2.28678
C 4.84730 -.71707 1.11306
C 4.98684 -.01486 -.23440
C 4.40721 1.37863 -.40044
C 4.11657 1.88050 -1.79961
C 3.05404 -2.49629 1.66198
C 2.57486 -1.63968 2.81139
C 3.24961 -.53283 3.17830
C 4.30617 -2.12751 .88621
