94 

C 1.52503 2.73270 -3.00759
C 2.70527 2.54940 -2.29202
C 3.46591 1.38267 -2.62836
C 4.48599 .85218 -1.74023
C 4.67058 1.43411 -.51041
C .47756 3.55912 -2.50905
C .49445 4.02733 -1.18980
C 1.68208 3.76663 -.37301
C 2.80406 3.11171 -.95839
C 3.82734 2.55721 -.09938
C .30362 4.06740 1.66085
C 1.55721 3.78263 1.09267
C -.87870 4.27981 .84679
C -.80452 4.27844 -.55680
C -1.99991 3.96977 -1.24957
C 4.72734 -1.40425 -.77324
C 4.92645 -.79017 .54103
C 4.47368 -.59663 -1.87121
C 4.90066 .60002 .65877
C 4.22888 1.19977 1.74953
C 3.53577 .41657 2.69515
C 2.48698 1.07065 3.42444
C 2.49602 3.04195 1.90113
C 3.63926 2.46102 1.26980
C 2.07309 2.44355 3.10561
C 2.77200 -3.51066 1.31786
C 3.97455 -2.60360 -.60354
C 3.82730 -2.80021 .83248
C 3.47609 -1.00867 2.53861
C 4.26146 -1.59137 1.51159
C 2.01091 -2.99982 2.44114
C 2.28052 -1.72625 2.99898
C 1.85831 -4.16595 .41011
C 1.90592 -3.86959 -.97921
C 2.92957 -2.95782 -1.48087
C 2.60338 -2.05770 -2.57380
C 3.41069 -.93636 -2.76190
C .70630 -3.98917 -1.69316
C .61116 -4.24956 1.07183
C -.59669 -4.33162 .36021
C -.50488 -4.35727 -1.05514
C -2.78648 -3.53706 -1.27520
C -1.58473 -3.82228 -1.85364
C 1.37947 .37473 3.88291
C 1.18552 -1.01530 3.57295
C -.16741 -1.49599 3.44764
C -.40890 -2.74111 2.78343
C .69860 -3.47555 2.30949
C -1.71565 -3.05096 2.21727
C -1.81810 -3.83333 .99088
C -2.94331 -3.64214 .17112
C .38228 -3.05943 -2.77201
C 1.23114 -2.02286 -3.11856
C .63322 -.78899 -3.60528
C 1.49522 .37472 -3.71096
C 2.84879 .30049 -3.27735
C .93050 1.64440 -3.74765
C -1.03238 -2.92102 -2.83320
C -2.98234 -1.44538 -2.60349
C -1.64353 -1.69727 -3.14088
C -.79504 -.60988 -3.57362
C -4.48522 .21059 -1.57834
C -3.48701 -.08771 -2.53136
C -2.68472 1.00380 -3.05655
C -1.36299 .73785 -3.61188
C -.48829 1.82062 -3.75167
C -3.55153 -2.40886 -1.74551
C -.74666 3.09535 -3.13802
C -1.95576 3.32294 -2.54981
C -2.97112 2.31090 -2.60828
C -4.41261 -.70356 1.83898
C -4.92303 -.06153 .71616
C -4.62747 1.31532 .50080
C -4.53583 1.50263 -.94357
C -3.80661 2.53256 -1.45934
C -3.94823 -2.08114 1.74442
C -4.00616 -2.75531 .53520
C -4.42653 -2.03659 -.66639
C -4.87889 -.74163 -.57806
C -1.28030 -.54887 3.59745
C -2.53898 -.94363 3.20099
C -2.77699 -2.21274 2.55892
C -1.50615 3.09638 2.74083
C -.12328 3.44679 2.87061
C .73830 2.58957 3.54733
C -1.98138 1.84402 3.13054
C -1.03987 .89309 3.72197
C .26175 1.30388 3.96087
C -3.14020 3.46655 -.56679
C -3.78819 2.04270 1.36977
C -3.09660 3.21221 .82340
C -1.99202 3.72680 1.52277
C -3.53613 .00577 2.71185
C -3.21240 1.35198 2.50950
