94 

C -4.06395 2.43967 .21144
C -3.22254 2.70721 1.30588
C -2.02296 3.52668 1.09197
C -3.66145 2.79596 -1.12126
C -2.57923 3.60551 -1.30678
C -1.79900 4.03800 -.17908
C -3.85356 1.65940 -1.99661
C -.86041 3.41629 1.98995
C -1.00977 2.63453 3.12715
C -.46336 4.31590 -.66928
C .68237 4.12766 .12371
C .50045 3.69159 1.50736
C 1.61897 3.15544 2.20803
C 2.89670 3.07292 1.53877
C -.45233 4.01085 -2.06225
C .71809 3.59283 -2.66799
C 1.93453 3.63868 -1.94948
C 1.93205 3.89094 -.55747
C 3.03449 3.37295 .19504
C -1.68697 3.36340 -2.41206
C -1.69093 2.12319 -3.07694
C -2.81032 1.22380 -2.84376
C 1.41915 2.26710 3.33856
C .10941 2.01726 3.76469
C 3.84268 2.00106 1.83349
C 3.58454 1.10692 2.82380
C 2.37974 1.25661 3.63038
C 4.42786 1.54575 .58931
C 4.58114 .14178 .32287
C 4.53810 -.25867 -1.01123
C 2.80308 2.60770 -2.52112
C 3.82693 1.99213 -1.74746
C 3.99993 2.43424 -.40530
C 4.16326 .66046 -2.05216
C 1.97088 -.03527 4.02415
C .59251 -.35837 4.17024
C -.29200 .72104 4.19901
C -1.69065 .55458 3.87998
C -2.20290 -.70433 3.45269
C -3.41494 -.66942 2.76066
C 2.90715 -.99606 3.45449
C .09685 -1.67220 3.71850
C -1.29283 -1.82417 3.26025
C 2.44641 -2.23972 3.09020
C 1.04497 -2.58929 3.27935
C 4.20044 -.82541 1.35412
C 3.83166 -.31300 2.61679
C 2.90094 -2.83664 1.87947
C 3.70510 -2.13709 .96637
C -2.15051 1.74918 3.30468
C -3.98460 .57128 2.30145
C -3.24867 1.76412 2.41242
C -4.77865 .28719 1.13243
C -4.80672 1.20218 .09751
C -4.67269 -1.13215 .85474
C -4.67923 .73633 -1.27713
C -4.56009 -.61276 -1.53859
C -4.62519 -1.57483 -.45247
C -3.75650 -2.67234 -.78599
C -1.87852 -4.06763 -.28866
C -2.96105 -3.30799 .19399
C .72296 -3.57367 2.29290
C -.58577 -3.71950 1.81116
C -1.63318 -2.83652 2.30983
C -2.87999 -2.73339 1.53768
C -3.77387 -1.70819 1.83926
C -.71587 -4.33120 .53992
C -.05955 -4.32335 -1.66750
C -1.46314 -3.98548 -1.63251
C -1.98913 -2.95937 -2.46882
C -3.19818 -2.40301 -2.07418
C .75459 -3.71550 -2.57689
C 1.85714 -3.74080 1.43673
C 1.69835 -4.07336 .09015
C .40156 -4.50486 -.30626
C 3.50763 -1.46622 -2.69491
C 4.08356 -1.58291 -1.39308
C 3.58869 -2.49578 -.45371
C 2.50090 -2.31622 -3.08095
C 2.12494 -3.39045 -2.22617
C 2.58866 -3.46019 -.89408
C 2.04114 1.85293 -3.42832
C 2.26635 .46989 -3.62197
C 3.43435 -.06808 -3.05078
C -3.57260 -1.06443 -2.47754
C -2.64278 -.19873 -3.06944
C -1.08058 -2.15445 -3.28069
C -1.33810 -.74670 -3.49227
C -.24381 .13869 -3.76609
C -.42771 1.59293 -3.58285
C .70402 2.40122 -3.48084
C .23068 -2.63682 -3.41748
C 1.30031 -1.77393 -3.71702
C 1.10271 -.38919 -3.85969
