94 

C -3.28730 3.13257 .95292
C -3.71744 1.96638 1.65917
C -4.60579 1.09490 .97398
C -4.76876 -.24101 1.38018
C -4.02855 -.73099 2.47312
C -2.13647 3.80827 1.32231
C -1.23496 3.27332 2.31208
C -1.58324 2.06082 2.96703
C -2.87717 1.44727 2.69730
C -3.07972 .10424 3.10071
C .76250 1.73326 3.58913
C -.52481 1.23703 3.56143
C 1.12361 2.94619 2.91760
C .15629 3.69671 2.23561
C .61080 4.44182 1.11228
C -4.37520 -2.32254 .14804
C -3.68816 -2.87327 1.31620
C -4.89522 -1.05555 .18058
C -3.48133 -2.08177 2.42504
C -2.17259 -2.05781 3.02516
C 1.36589 -3.08921 2.23532
C 2.65040 -2.56582 2.41428
C .23898 -2.39965 2.86618
C -1.10370 -2.83731 2.55898
C -1.35092 -3.74191 1.44220
C -2.62777 -3.72902 .84852
C -.68568 -.22192 3.65958
C -1.95474 -.73166 3.50047
C 1.91870 .86067 3.58011
C 1.77087 -.54794 3.51919
C .43970 -1.12033 3.47441
C 2.85019 -1.27238 3.01749
C -1.66292 -4.10997 -1.35177
C -3.67772 -2.79587 -1.03772
C -2.76097 -3.80560 -.59167
C -.22705 -4.21928 .65007
C 1.13606 -3.96367 1.09642
C -.44051 -4.50633 -.71064
C -1.33747 -3.29203 -2.49217
C -2.06987 -2.15063 -2.79288
C -3.33653 -1.92969 -2.08892
C -3.94134 -.59838 -2.09283
C -4.74101 -.18927 -.97357
C -3.32555 .40481 -2.84017
C .08936 -3.34212 -2.67282
C .82801 -2.22868 -3.08125
C .09627 -1.01585 -3.44019
C -1.34029 -1.03090 -3.37731
C -2.03215 .19126 -3.47369
C 2.22964 .29007 -3.18454
C .79849 .24810 -3.48662
C .05177 1.47441 -3.46142
C -1.35365 1.41115 -3.50960
C 2.80092 1.52692 -2.87648
C 1.89150 -4.13231 -1.25068
C .60073 -4.24548 -1.67009
C 2.94497 -.91327 -2.77620
C 2.76808 -3.19790 -1.90309
C 2.23924 -2.17501 -2.71815
C 2.18319 -4.14150 .16832
C -3.40446 1.78083 -2.45895
C -4.01384 2.14638 -1.23807
C -4.68250 1.13204 -.50026
C -3.44530 3.23164 -.51226
C -2.19848 2.42105 -2.88821
C -1.64175 3.48259 -2.17920
C -2.35583 3.94814 -1.02214
C -.29467 4.72682 .00475
C -1.61889 4.44990 .12000
C 2.00573 2.71664 -2.71709
C .63509 2.71160 -2.95457
C -.19346 3.68084 -2.24726
C .40607 4.45780 -1.24034
C 4.52779 .50440 -1.50099
C 3.90815 1.63621 -1.95501
C 3.66024 2.72750 -1.05890
C 2.58761 3.49758 -1.66103
C 1.77909 4.29113 -.88748
C 3.83755 -2.94401 -.97507
C 4.52084 -1.75290 -1.04415
C 4.13208 -.77609 -2.02652
C 4.48703 -1.53672 1.39513
C 3.71006 -2.76329 1.46428
C 3.45348 -3.49315 .31964
C 4.90640 -1.04943 .17223
C 2.94908 1.50764 2.87525
C 3.90432 .77340 2.12791
C 3.94570 -.61593 2.36350
C 1.89581 4.21499 .56675
C 3.74853 2.54661 .33102
C 2.81783 3.31599 1.17381
C 2.44954 2.79438 2.42334
C 4.83803 .37147 -.10029
C 4.32989 1.29628 .83097
