94 

C -.75064 -2.84267 3.08593
C -1.99229 -2.93778 2.45030
C -2.96273 -1.96402 2.83271
C -4.11506 -1.67813 2.00378
C -4.24789 -2.31788 .79338
C .42627 -3.38251 2.49835
C .42737 -3.87373 1.19318
C -.84537 -3.93986 .47588
C -2.05026 -3.53621 1.13471
C -3.21945 -3.24641 .34406
C .41412 -4.04901 -1.63554
C -.82770 -3.99259 -.98392
C 3.56334 -1.39911 2.63003
C 2.76967 -2.53800 2.34638
C 1.55300 -2.63607 3.03275
C 2.88698 -3.20091 1.05384
C 1.70681 -3.85005 .47096
C 1.66558 -4.01744 -.90970
C -4.87087 .45612 1.02759
C -5.01816 -.21933 -.26788
C -4.39379 -.25256 2.11645
C -4.71549 -1.57887 -.37221
C -4.00427 -2.05393 -1.49692
C -3.53705 -1.16199 -2.49505
C -2.42225 -1.59214 -3.26833
C -1.94886 -3.49004 -1.74038
C -3.14172 -3.14780 -1.04376
C -1.72601 -2.83830 -2.97488
C -3.55758 2.87750 -1.21997
C -4.39542 1.78101 .79653
C -4.39006 1.96699 -.65063
C -3.76434 .24802 -2.35694
C -4.59877 .67712 -1.28711
C -2.78683 2.52184 -2.39659
C -2.78170 1.18525 -2.90035
C -2.74942 3.74410 -.39187
C -2.60988 3.45893 1.00894
C -3.39172 2.36698 1.59465
C -2.82643 1.58385 2.68078
C -3.37699 .32463 2.93793
C -1.40472 3.81494 1.60931
C -1.63228 4.10615 -1.15911
C .79204 4.27926 -1.29076
C -.40314 4.47508 -.54552
C -.32418 4.39255 .86171
C -1.48944 -.67957 -3.77422
C -1.58023 .70770 -3.50500
C -.33804 1.46788 -3.44862
C -.40196 2.80056 -2.92877
C -1.63193 3.29529 -2.38533
C .77723 3.43224 -2.49841
C -.83108 3.00860 2.67101
C -1.45054 1.84493 3.13587
C -.60971 .79134 3.64899
C -1.20259 -.53787 3.81364
C -2.55102 -.75498 3.43944
C -.38333 -1.66835 3.82127
C .57420 3.13059 2.60249
C 1.42237 2.09874 3.00539
C .82611 .92118 3.59061
C 2.97998 -.25489 3.24781
C 1.65639 -.27579 3.71277
C 1.04270 -1.54416 3.77387
C 4.08404 2.46180 .37826
C 3.08630 2.90160 1.27327
C 2.77236 2.07001 2.42302
C 3.55542 .93494 2.65001
C .90195 4.00691 1.48913
C 2.02417 4.09597 -.64858
C 2.07923 3.83414 .76207
C 4.91050 .55069 -.69105
C 4.80261 1.25058 .58850
C 4.57890 .51760 1.74688
C 4.87574 -.82619 -.72990
C 2.85119 3.31773 -1.54971
C 4.18974 1.30004 -1.67995
C 3.87342 2.57102 -1.06405
C -.21291 -1.34144 -3.89380
C 2.13668 -1.44819 -3.21442
C .98744 -.67218 -3.68095
C .94610 .78355 -3.50424
C 4.13360 -1.48156 -1.76807
C 3.28856 -.76386 -2.64094
C 3.30029 .68230 -2.58300
C 2.12753 1.44444 -3.03921
C 2.01711 2.78958 -2.60627
C 3.71589 -2.75703 -1.22766
C 2.63379 -3.39178 -1.76653
C 1.94067 -2.80198 -2.88655
C .62865 -3.39030 -2.88722
C -.41357 -2.70968 -3.48987
C 4.56727 -.93532 1.70171
C 4.72491 -1.59509 .50135
C 3.90679 -2.75508 .19659
