94 

C -4.33397 -1.52474 .38435
C -4.26141 -.85992 1.61041
C -3.43154 -2.20334 -2.24029
C -4.16564 -1.06984 -2.07431
C -4.67935 -.73070 -.76126
C -1.93203 1.45028 -3.59866
C -3.77004 .14760 -2.74933
C -2.54307 .20470 -3.49049
C -2.21868 -2.18162 -3.05120
C 1.97096 -1.79167 -3.28244
C .57240 -1.98434 -3.34669
C -.25590 -.88809 -3.73891
C -1.70552 -.99851 -3.57986
C .34695 .42254 -3.84497
C -.49780 1.56640 -3.75401
C -4.74338 .67045 -.69715
C -4.54712 1.35233 .53900
C -4.34957 .56725 1.69244
C -3.95181 2.64877 .51211
C -4.18743 1.22013 -1.94767
C -2.38740 2.57812 -2.84281
C -3.47282 2.45499 -1.95145
C -3.42502 3.21418 -.74553
C -3.13515 3.08434 1.56435
C -2.75146 2.19745 2.62722
C -3.45131 .99911 2.72270
C -2.84451 -.17519 3.31122
C -1.50835 -.14911 3.79497
C -.85950 -1.38517 3.87658
C -2.18073 4.01735 1.00259
C -1.37896 2.26702 3.15843
C -.71953 1.06561 3.67713
C -.95183 4.14315 1.56759
C -.57932 3.31681 2.70875
C -1.23455 3.35251 -2.49699
C -1.13275 4.00136 -1.26886
C -2.30620 4.00491 -.44030
C -3.35835 -1.30869 2.65680
C -1.41551 -2.56555 3.28213
C -2.59511 -2.49529 2.52082
C -.31184 -3.41138 2.88585
C -.42216 -4.17398 1.73903
C .91024 -2.73370 3.16895
C .69438 -4.26151 .84909
C 1.90232 -3.60834 1.10997
C 2.01929 -2.82651 2.32426
C 3.46400 .59369 2.81947
C 2.70298 -.54122 3.11097
C 3.01887 -1.77201 2.41273
C 4.04226 -1.76819 1.45539
C .84115 3.22193 2.70309
C 1.49245 2.09351 3.20963
C .71026 .96683 3.66614
C 1.36001 -.34877 3.67682
C .56889 -1.47329 3.80657
C 2.83853 1.90367 2.79175
C -1.64590 -4.13139 .95705
C -2.70497 -3.26411 1.27731
C -3.54741 -2.75568 .19256
C -1.26593 -4.36911 -.40636
C -2.02367 -3.84176 -1.42649
C -3.22118 -3.11516 -1.12558
C .17057 -4.35632 -.50303
C -1.36187 -3.21745 -2.54939
C .02477 -3.10818 -2.61295
C .82734 -3.74688 -1.56825
C 3.90169 -2.52440 .21347
C 2.76382 -3.30317 -.02679
C 2.21504 -3.34063 -1.36531
C 2.80988 -2.54600 -2.35315
C 5.09180 -.56873 -.25367
C 4.55076 -1.79058 -.82513
C 3.97871 -1.77417 -2.09607
C 4.96906 .62766 -.95021
C 4.43461 1.83538 1.11694
C 4.50424 .58383 1.84375
C 4.80224 -.59536 1.16950
C 4.59193 1.84252 -.25197
C 1.34323 3.87653 1.51773
C 2.53216 3.46638 .92290
C 3.38029 2.63142 1.71652
C -.07713 2.72204 -3.09743
C 1.22312 2.81873 -2.52496
C 1.38313 3.55489 -1.29285
C .19178 4.12039 -.64370
C .22860 4.31852 .73710
C 3.62310 2.56358 -1.08247
C 2.57438 3.34765 -.52511
C 3.83640 -.51666 -2.80136
C 2.55358 -.53433 -3.48316
C 1.73158 .61950 -3.58423
C 4.28420 .64964 -2.22779
C 3.43403 1.83351 -2.26775
C 2.18035 1.84313 -2.92950
