94 

C -3.88951 -.00800 2.26455
C -3.08986 -.87506 3.00485
C -4.63282 1.54904 -.00681
C -4.90786 .21801 -.00357
C -4.63226 -.57721 1.17564
C -3.09239 -.88744 -3.00859
C -4.63332 -.58211 -1.17953
C -3.89170 -.01745 -2.27167
C -3.53807 1.40726 -2.23753
C -2.30897 1.86376 -2.88253
C -4.06514 2.18354 -1.19208
C -1.78001 3.10308 -2.50480
C -4.39497 -1.88885 .73897
C -3.52661 -2.75676 1.46472
C -2.93058 -2.25078 2.63856
C -2.81561 -3.76138 .74318
C -4.39574 -1.89191 -.73732
C -2.93259 -2.26154 -2.63639
C -3.52793 -2.76281 -1.46005
C -2.81642 -3.76451 -.73496
C -1.56323 -4.21220 1.18276
C -.87893 -3.57052 2.27162
C -1.60647 -2.64452 3.01159
C -.95160 -1.49681 3.60793
C 1.25932 -2.32526 2.89227
C .44861 -1.30051 3.52215
C -.82564 -4.62085 .00497
C .53031 -4.55474 .00404
C 1.24829 -4.08256 1.17902
C .58449 -3.44679 2.22902
C 2.61190 -2.01553 2.55525
C 3.14538 -.75327 2.95877
C -1.60889 -2.65686 -3.00904
C -.88079 -3.57975 -2.26587
C -1.56450 -4.21715 -1.17384
C -1.84215 -.42384 3.59942
C 2.30311 .26111 3.42388
C .92154 .03833 3.62926
C .01132 1.16227 3.50915
C -1.39153 .91779 3.46242
C .53191 2.42564 2.99868
C -.36404 3.35806 2.50935
C 4.04238 1.31006 2.27988
C 2.81516 1.54404 2.96345
C 1.92863 2.54960 2.57918
C 4.35893 2.07588 1.15791
C 3.43389 3.06882 .71589
C 2.25631 3.34831 1.41895
C 4.81896 -.71800 1.15835
C 4.26870 -.11981 2.26992
C 2.52414 -3.62856 .72182
C 3.25281 -2.67205 1.42895
C 4.27489 -1.98760 .70047
C -1.77751 3.11318 2.48052
C -2.30601 1.87553 2.86473
C -3.53572 1.41645 2.22328
C -2.33165 3.88200 1.40295
C -3.42616 3.38861 .72064
C -4.06373 2.18838 1.17493
C -1.23323 4.51275 .68286
C -3.42684 3.38549 -.74397
C -2.33310 3.87617 -1.42982
C -1.23391 4.51000 -.71384
C 1.19028 4.03682 .70542
C -.02609 4.21247 1.37506
C -.02750 4.20720 -1.40639
C 1.18969 4.03419 -.73750
C 4.35788 2.07112 -1.18507
C 3.43336 3.06609 -.74640
C 2.25516 3.34301 -1.44945
C 4.04061 1.30099 -2.30340
C 2.81264 1.53215 -2.98657
C 1.92649 2.53956 -2.60587
C 4.81810 -.72288 -1.17372
C 5.16401 .07289 -.00953
C 4.94103 1.44204 -.01246
C 4.26682 -.12906 -2.28715
C 2.52359 -3.63158 -.72053
C 3.25150 -2.67820 -1.43321
C 4.27442 -1.99059 -.70940
C -.95491 -1.51175 -3.61136
C .44531 -1.31502 -3.52824
C 1.25659 -2.33712 -2.89472
C .58257 -3.45591 -2.22562
C 1.24716 -4.08761 -1.17386
C 3.14253 -.76527 -2.97116
C 2.60943 -2.02591 -2.56115
C -.36641 3.34810 -2.53674
C .52933 2.41369 -3.02300
C .00810 1.14787 -3.52658
C -1.39477 .90350 -3.47679
C -1.84543 -.43879 -3.60672
C 2.29995 .24709 -3.43994
C .91814 .02329 -3.64238
