94 

C -.94613 4.67426 .62287
C -1.48527 4.47847 -.71907
C -1.58384 4.10631 1.70108
C -2.72419 3.88051 -.89600
C -2.89786 2.95293 -1.95078
C 2.55836 3.56462 1.17063
C 1.26215 3.91649 1.52798
C .49136 4.57609 .52644
C .81170 4.35594 -.83114
C 2.01466 3.74295 -1.20665
C 2.98983 3.61277 -.19256
C 4.19771 1.95356 -1.49140
C 4.09173 2.70014 -.33339
C -3.11189 .38354 -3.04858
C -1.87923 1.11462 -3.25887
C -1.79287 2.45935 -2.70052
C -.50855 3.06326 -2.49985
C -.41190 4.13243 -1.57729
C .60423 1.05509 -3.45938
C .70849 2.34560 -2.87365
C 1.99493 2.79916 -2.31713
C 3.12284 1.99706 -2.46815
C .58113 3.11952 2.54030
C -.81661 3.29066 2.63811
C -1.64131 2.24134 3.06869
C 3.25719 2.49225 1.83978
C 2.57353 1.60032 2.67690
C 1.17482 1.90195 3.02868
C .32489 .85329 3.52713
C -1.10603 1.01645 3.48647
C .86943 -.49300 3.71198
C -.02822 -1.54989 3.87948
C 4.30363 2.06280 .95332
C 3.08792 .24747 2.78418
C 2.22929 -.80733 3.29994
C 4.75382 .76103 1.01438
C 4.20137 -.12166 1.99863
C -1.45390 -1.37632 3.73376
C -2.00334 -.13168 3.44978
C -3.23831 -.07325 2.67453
C -1.98991 -2.58289 3.17204
C -3.10949 -2.51863 2.37796
C -3.76713 -1.26549 2.17475
C -1.86940 -4.11930 -.71561
C -3.15394 -3.27498 1.14716
C -2.02271 -3.97567 .69426
C 1.51591 -3.14122 2.89002
C .27819 -2.88361 3.41982
C -.88767 -3.44392 2.80280
C 1.62126 -3.81716 1.62201
C .49305 -4.17060 .89132
C -.82165 -4.02907 1.52550
C 2.54014 -2.14053 2.97201
C -3.62765 1.17090 2.01599
C -2.92386 2.32920 2.36877
C -2.88536 3.47498 1.53042
C -4.32143 1.13674 .74706
C -4.21143 2.25959 -.10332
C -3.48647 3.42107 .27248
C -4.38973 -1.31634 .86491
C -4.61440 -.15788 .12706
C -4.55970 -.27327 -1.30451
C -4.10546 .85003 -2.09716
C -3.97981 2.07446 -1.53478
C -3.99456 -2.54794 .23308
C -2.69691 -3.43360 -1.61311
C -3.74892 -2.58803 -1.14947
C -4.04869 -1.42290 -1.91499
C -.63320 -3.68526 -2.63898
C -1.89247 -3.06303 -2.78658
C -1.98804 -1.76505 -3.34074
C -3.14251 -.99897 -2.99932
C .49292 -3.09557 -3.20110
C 1.83735 -3.65639 -1.21126
C .62266 -4.18667 -.57464
C -.54913 -4.25215 -1.32372
C 1.74893 -3.17951 -2.51998
C 4.59381 -1.36881 .04521
C 4.30281 -1.45677 1.44859
C 3.46893 -2.43646 1.90926
C 3.86247 -2.13107 -.88298
C 2.95112 -3.16837 -.38462
C 2.84727 -3.35031 .99086
C 3.95170 -.18195 -2.40986
C 4.67737 .58678 -1.42894
C 4.97696 .00588 -.21085
C 2.53041 -2.03010 -2.95134
C 3.60027 -1.52282 -2.17979
C -.79591 -1.06152 -3.74405
C -.71331 .40451 -3.60734
C .39182 -1.80708 -3.79390
C 1.68220 -1.17359 -3.67119
C 1.80110 .23432 -3.55908
C 3.02028 .70142 -3.06155
