94 

C .63017 -3.54154 -2.90741
C -.65125 -2.74036 -2.88741
C -1.95738 -.53768 -3.38236
C -3.26567 -1.26800 -3.12146
C -4.35742 -.46941 -2.41772
C -4.30926 1.03525 -2.42856
C 1.92197 -2.75358 -3.00352
C 1.95669 -1.32070 -3.39833
C .64660 -.56907 -3.51339
C -.64530 -1.27541 -3.24942
C 1.96800 1.66616 -3.87229
C .64798 .91661 -3.79551
C -.65072 1.69868 -3.70728
C -1.95309 .97028 -3.52617
C -3.21564 1.76001 -3.21087
C 3.23939 .95000 -3.41106
C 3.23497 -.54225 -3.17471
C 4.34318 -1.14171 -2.32516
C -4.49155 1.80204 1.44856
C -4.73495 1.05618 .15246
C -4.61508 1.81361 -1.15539
C -1.68981 3.77415 -2.59422
C -3.00785 3.09138 -2.49889
C -3.78134 3.09664 -1.18465
C -3.01225 3.44933 .07459
C -3.57786 3.02614 1.41114
C -.60637 3.21005 -3.50642
C -4.82265 -.45608 .14739
C -4.80854 -1.21505 -1.16609
C -4.16740 1.01418 2.71404
C -4.22285 -.49560 2.68660
C -4.72467 -1.22938 1.44757
C -3.02208 1.72009 3.43869
C -1.88076 .88715 3.98753
C -.57143 1.58611 4.25890
C -1.05430 4.39013 -1.35302
C -1.59464 3.91723 -.01802
C -.65848 3.69060 1.14413
C -1.21724 3.35498 2.50738
C -2.65760 2.96156 2.62464
C -.26768 2.87058 3.58393
C -4.01665 -2.58096 1.41723
C -3.65838 -3.21981 .09457
C -4.12271 -2.57884 -1.19598
C -2.52424 -4.22301 .05394
C -3.01531 -2.63406 2.56748
C -.41385 -2.56819 2.79021
C -1.66246 -3.27289 2.32145
C -1.54975 -4.31279 1.22416
C 2.16959 -2.56276 3.03767
C .93635 -3.10072 2.39313
C -1.84661 -.59593 3.71140
C -3.12379 -1.32308 3.35043
C .68536 .82978 4.49265
C .72309 -.63834 4.10855
C -.51172 -1.28120 3.56377
C 2.07158 -1.29351 3.88512
C -.32838 -4.84838 -.84398
C -1.75053 -4.44433 -1.24295
C -1.89063 -3.36041 -2.29606
C -3.20372 -2.62413 -2.41239
C .83467 -4.51544 -1.75045
C 1.05376 -3.96577 1.16618
C -.17309 -4.70200 .66521
C 2.22823 -4.26191 -1.16524
C 2.28897 -3.84568 .29801
C 3.44538 -2.47967 2.20232
C 3.44136 -3.00788 .78111
C 4.44344 -2.43986 -.21019
C 4.10342 -2.51320 -1.69585
C 2.87008 -3.27550 -2.09191
C 4.10997 -1.13483 2.49523
C 4.74747 1.16322 1.40805
C 4.71986 -.34930 1.35549
C 5.02043 -1.05036 .05165
C 1.84024 1.72229 4.04534
C 3.88159 1.88564 2.43250
C 3.07230 1.09029 3.43312
C 3.26610 -.40745 3.53758
C .46075 4.38439 -1.58346
C 1.37924 3.92944 -.46831
C .83022 3.64409 .90687
C 3.24115 3.09443 1.75400
C 1.78295 3.37787 2.04952
C 1.24490 2.98176 3.41122
C 3.14525 3.12252 -2.22799
C 2.00059 3.05286 -3.23772
C .70412 3.76729 -2.95674
C 3.74915 3.14829 .31255
C 2.79302 3.51242 -.80334
C 4.97031 -.25896 -1.24955
C 4.67928 1.95503 .10376
C 4.65208 1.21852 -1.21764
C 3.95972 1.84505 -2.40831
