94 

C -4.55744 -1.26769 -1.40023
C -1.13932 -3.57892 -2.22252
C -2.38456 -2.91645 -2.16967
C -3.27946 -3.31584 -1.14539
C -4.33290 -2.44660 -.71521
C -.71383 -4.47443 -1.19164
C -1.44719 -4.52621 .02538
C -2.75561 -3.97455 .02183
C -.71629 -4.46334 1.24354
C .71636 -4.47489 -1.19046
C 2.75585 -3.97541 .02631
C 1.44725 -4.52691 .02820
C .71395 -4.46353 1.24477
C -4.99836 -.07536 .69320
C -4.55988 -1.25451 1.41176
C -4.99737 -.08198 -.69398
C -4.33422 -2.43959 .73904
C -3.28112 -3.30594 1.17986
C -2.38781 -2.89672 2.20277
C -1.14399 -3.55854 2.26404
C -3.23480 3.14574 1.38016
C -4.13935 2.27716 .71850
C -4.45868 1.08050 1.39020
C -3.61768 .60495 2.44261
C -2.48472 1.31996 2.85478
C -2.43299 2.66477 2.44174
C -.00158 2.75783 2.86602
C -1.18693 3.38209 2.44370
C 1.18470 3.38187 2.44603
C -2.47786 -1.55450 2.74869
C -3.62387 -.82833 2.43068
C 1.24604 .60387 3.19894
C -.00154 -2.92896 2.82330
C -.00207 -1.53203 3.17289
C -1.25301 -.83065 3.15792
C -1.25049 .60404 3.19637
C -.00197 1.32276 3.21229
C -4.13829 2.27037 -.74124
C -4.45676 1.06725 -1.40157
C -2.46016 4.14930 .66843
C -2.45900 4.14287 -.70727
C -3.23261 3.13247 -1.41007
C -1.19920 4.31661 1.37679
C .00076 4.65179 .71148
C 1.19930 4.31644 1.37910
C -2.42889 2.64117 -2.46557
C -2.47999 1.29240 -2.86464
C -3.61380 .58160 -2.44736
C -3.62038 -.85161 -2.42100
C -1.24769 -.86109 -3.14349
C -2.47313 -1.58080 -2.72921
C -1.18256 3.35839 -2.47272
C .00378 2.73004 -2.88616
C .00368 1.29155 -3.21765
C -1.24478 .57338 -3.19652
C 2.48682 1.29146 -2.85989
C 1.25211 .57275 -3.19421
C 1.25408 -.86136 -3.14110
C .00288 -1.56226 -3.14877
C .00203 -2.95549 -2.78508
C 3.61941 .58014 -2.44028
C 3.62498 -.85290 -2.41395
C 2.47851 -1.58161 -2.72451
C 2.43561 2.64040 -2.46080
C 1.18960 3.35804 -2.47027
C .00213 4.64491 -.75106
C -1.19673 4.30343 -1.41513
C 1.20217 4.30315 -1.41285
C 2.38807 -2.91821 -2.16501
C 1.14418 -3.58012 -2.21969
C 3.28124 -3.31791 -1.13820
C 4.99954 -.08353 -.68393
C 4.56048 -1.26954 -1.39062
C 4.33455 -2.44785 -.70609
C 4.99830 -.07667 .70322
C 3.23762 3.13158 -1.40387
C 4.14168 2.26912 -.73321
C 4.46059 1.06563 -1.39267
C 3.23452 3.14506 1.38632
C 2.46163 4.14894 .67314
C 2.46314 4.14248 -.70254
C 4.45767 1.07952 1.39901
C 4.14009 2.27625 .72652
C 2.47414 -1.55525 2.75369
C 1.24868 -.83113 3.16037
C 3.62133 -.82914 2.43797
C 3.61478 .60433 2.44971
C 2.48115 1.31953 2.85954
C 2.43051 2.66431 2.44635
C 4.33356 -2.44095 .74821
C 3.28003 -3.30599 1.18716
C 2.38524 -2.89651 2.20756
C 1.13975 -3.55819 2.26686
C 4.55829 -1.25540 1.42139
