94 

C -2.06611 -3.60829 -1.74907
C -.71010 -3.86994 -1.85499
C -.09832 -4.51823 -.73386
C 1.33505 -4.47180 -.52884
C 2.12429 -3.87315 -1.46259
C 1.51270 -3.15327 -2.58012
C .09834 -3.01685 -2.71358
C -2.67411 -2.53540 -2.49361
C -1.88254 -1.56928 -3.13144
C 4.36022 -1.77375 .64350
C 3.62415 -2.92372 .33203
C 3.32125 -3.14925 -1.05937
C 3.53281 -2.15548 -2.01458
C 3.89425 .21456 -2.42707
C 4.21813 -.94960 -1.68283
C 4.66660 -.78593 -.35813
C -3.68571 .04681 -2.70131
C -2.41457 -.22560 -3.25245
C -.44399 -1.80968 -3.25136
C -.06910 .65864 -3.64381
C .44916 -.70176 -3.57182
C 1.85928 -.89533 -3.43634
C 2.36918 -2.12526 -2.92733
C 2.72788 .22676 -3.33465
C 2.69288 -3.46033 1.33557
C 1.58505 -4.24511 .89255
C 4.16855 -1.06874 1.89977
C 3.25799 -1.55157 2.82499
C 2.52367 -2.77063 2.54503
C 4.24541 .33076 1.65379
C 2.39583 -.64553 3.49960
C 2.43592 .73304 3.25575
C 3.39434 1.24395 2.29557
C 2.87955 3.68310 -.51630
C 3.56834 2.72879 .25676
C 3.14735 2.52481 1.63344
C 2.11975 3.32383 2.14346
C 4.62403 .50846 .26018
C 4.02535 1.48982 -1.86301
C 4.25187 1.64656 -.45417
C 1.22235 -2.63539 3.13343
C .09401 -3.25471 2.58576
C .33318 -4.17539 1.52448
C -1.20584 -2.61211 2.71337
C -2.30043 -3.05880 1.83481
C -3.46788 -2.30187 1.77925
C 1.13078 -1.33297 3.72210
C -.07162 -.66132 3.80638
C -1.29153 -1.34671 3.36767
C -2.43716 .85173 3.40133
C -2.49946 -.55408 3.22140
C -3.55820 -1.03449 2.44804
C 1.18140 2.81987 3.13346
C 1.23795 1.49843 3.57622
C -.00928 .80565 3.88834
C -1.20244 1.51195 3.77547
C -2.00925 -3.90986 .68347
C -.70039 -4.42216 .52742
C -4.30658 -2.23571 .59881
C -3.91783 -2.90520 -.54602
C -2.76008 -3.75582 -.49886
C -4.83118 -.88627 .50626
C -3.89762 -2.20087 -1.81586
C -4.38919 -.91776 -1.90357
C -4.90263 -.24736 -.71670
C -3.16361 1.71859 2.56416
C -4.03759 1.21860 1.57036
C -4.36374 -.14784 1.65388
C -3.16596 3.02124 .03353
C -4.07587 1.89548 .28036
C -4.55335 1.15539 -.81821
C -2.80224 3.28945 -1.28582
C .00617 4.25198 1.71348
C -.07234 3.48247 2.91674
C -1.24840 2.83494 3.23492
C -1.02985 4.21783 .76295
C -2.27525 3.52158 1.09935
C -2.37582 2.92390 2.35780
C .71840 4.46774 -1.00524
C 1.76810 4.40817 .00492
C 1.41176 4.25935 1.32532
C -1.52144 3.87869 -1.62268
C -.65208 4.37274 -.64428
C 3.08866 2.34977 -2.55292
C -1.01676 3.20418 -2.77331
C .35280 3.04379 -2.98092
C 1.20875 3.84294 -2.17573
C 2.58211 3.44268 -1.92095
C -3.97854 1.33636 -2.12308
C -3.12161 2.37687 -2.34516
C -1.94376 2.17259 -3.14687
C -1.50587 .88847 -3.48638
C .82678 1.76542 -3.50212
C 2.22615 1.51717 -3.38473
