94 

C -.62926 -4.36171 1.24086
C .75747 -4.23494 1.20409
C 1.38751 -4.56191 -.02589
C 2.74060 -4.14192 -.29404
C 3.45305 -3.50004 .69960
C 2.73367 -3.00300 1.87332
C 1.38103 -3.25471 2.08222
C -1.42834 -3.58064 2.16358
C -.88132 -2.43414 2.77381
C 4.85145 -.24122 1.17629
C 4.46334 -2.52009 .35555
C 4.46320 -1.53387 1.41978
C 2.53223 -.72893 2.79391
C 3.31670 -1.77430 2.27481
C 4.22273 .83258 1.90200
C -.10050 2.61076 3.12715
C .78175 1.51764 3.23600
C 2.17414 1.74934 2.88063
C 3.05206 .62596 2.66235
C -3.11200 -1.42928 2.67759
C -1.75005 -1.31391 3.01523
C .56789 -2.24522 2.74199
C -2.04980 1.15704 2.95413
C -1.18951 .01621 3.19614
C .22979 .18506 3.26761
C 1.12267 -.96625 3.03926
C -1.48286 2.42299 2.92576
C 5.07905 .20177 -.19376
C 4.81246 -.68022 -1.23270
C 4.58977 -2.08809 -.96495
C 3.62270 -2.55319 -1.94436
C 2.76823 -3.59992 -1.64304
C 4.64209 1.55965 -.29016
C 3.89221 -.27331 -2.25567
C 3.35168 1.00279 -2.30172
C 3.81480 1.99295 -1.34256
C 3.51323 3.06023 1.28029
C 4.33904 1.99528 1.06796
C 2.95706 3.78935 .15016
C 3.02740 3.20850 -1.13959
C 1.95989 3.46725 -2.01783
C 2.52825 2.99434 2.31728
C -2.72958 -3.01452 -1.85057
C -1.37632 -3.26351 -2.05864
C .88391 -2.43921 -2.75224
C 1.43363 -3.58273 -2.13918
C 3.11209 -1.42862 -2.65894
C 1.47369 2.41904 -2.91760
C 2.04372 1.15433 -2.94251
C 1.18619 .01079 -3.18132
C 1.74990 -1.31748 -2.99672
C .09088 2.60291 -3.11942
C -.78873 1.50733 -3.22531
C -.23353 .17602 -3.25327
C -1.12358 -.97686 -3.02180
C -.56571 -2.25373 -2.72096
C -2.53369 -.74230 -2.77712
C -3.31557 -1.78830 -2.25531
C -.75040 -4.23996 -1.17793
C .63652 -4.36337 -1.21443
C -3.44779 -3.51029 -.67553
C -2.73377 -4.14782 .31992
C -1.37963 -4.56524 .05298
C -4.46040 -2.53185 -.33407
C -2.76274 -3.60236 1.66749
C -3.61977 -2.55685 1.96604
C -4.58784 -2.09668 .98529
C -4.85420 -.25610 -1.16106
C -4.46272 -1.54845 -1.40096
C -3.05692 .61165 -2.64933
C -4.22816 .81733 -1.88965
C -2.18173 1.73657 -2.87066
C -3.52411 3.04835 -1.27392
C -4.34728 1.98192 -1.05867
C -4.64916 1.54909 .30056
C -5.08275 .18996 .20782
C -4.81394 -.68859 1.24916
C -.27486 3.82020 -2.43277
C -1.54800 3.96866 -1.96998
C -2.53894 2.98221 -2.31075
C 1.76184 4.41410 .59585
C .67354 4.64028 -.27521
C .85552 4.25836 -1.63374
C -.86921 4.26038 1.63692
C .26218 3.82707 2.43716
C 1.53493 3.97746 1.97400
C -1.77596 4.40816 -.59304
C -.68821 4.63923 .27740
C -3.89473 -.27683 2.27105
C -3.82290 1.98707 1.35181
C -3.35731 1.00066 2.31356
C -2.96961 3.78164 -.14572
C -3.03849 3.20395 1.14554
C -1.97162 3.46755 2.02312
