76

C 0.167910 2.482950 2.737550
C 1.497160 2.037830 2.638850
C 2.327050 2.709410 1.709350
C 3.512390 2.071430 1.169920
C 3.871210 0.818040 1.615380
C 0.711000 -0.250480 3.337770
C 1.806070 0.661840 3.023220
C 3.033380 0.125330 2.587210
C 0.928490 -1.622540 3.175440
C 2.154030 -2.140960 2.652550
C 3.200080 -1.279330 2.362640
C -0.683300 0.228100 3.341330
C -1.779560 -0.683270 3.027420
C -0.901610 1.600670 3.185200
C -3.008690 -0.145870 2.598140
C 3.996360 1.433090 -1.145190
C 4.399870 0.122350 -0.677090
C 3.618450 2.413570 -0.232360
C 4.401570 -0.163390 0.687860
C 3.990690 -1.471310 1.157070
C 3.859790 -0.855310 -1.602910
C 3.494360 -2.106410 -1.156620
C 3.602830 -2.449100 0.245160
C 1.849050 3.209280 -1.737450
C 2.159400 2.114680 -2.635550
C 2.522700 3.315390 -0.535990
C 3.200510 1.246210 -2.348410
C 3.023350 -0.157230 -2.572190
C 0.928540 1.604460 -3.154370
C 0.700910 0.233960 -3.315350
C 1.791040 -0.685560 -3.004350
C 1.474370 -2.059550 -2.619250
C 0.141630 -2.495500 -2.713090
C 2.303230 -2.736590 -1.692680
C -1.712620 3.532590 -0.650110
C -0.325310 3.790030 -0.626320
C 0.411800 3.418460 -1.781440
C -0.135370 2.491960 -2.703730
C -1.467690 2.055860 -2.606040
C -2.293000 2.729810 -1.673790
C -3.849660 0.848970 -1.585280
C -3.482350 2.098180 -1.135430
C -0.923790 -1.605980 -3.156050
C -0.696850 -0.234910 -3.313180
C -1.785870 0.683490 -2.994830
C -3.016810 0.154120 -2.560140
C 0.366620 3.786090 0.664100
C 1.752210 3.519190 0.687500
C -2.484400 3.330200 0.573360
C -1.811660 3.216180 1.774480
C -0.373010 3.415990 1.818340
C -3.586140 2.436310 0.267820
C -2.129310 2.120470 2.668990
C -3.176370 1.259530 2.379780
C -3.971360 1.455470 1.177780
C -3.985350 -1.440870 -1.136170
C -4.386890 -0.131790 -0.661400
C -4.383780 0.149140 0.704730
C -3.604110 -2.424600 -0.228280
C -1.839880 -3.215770 -1.742380
C -2.153120 -2.117590 -2.635010
C -3.193320 -1.249930 -2.341210
C -2.509430 -3.325440 -0.538960
C 1.726210 -3.542740 -0.669400
C 0.338790 -3.800420 -0.641180
C -0.402590 -3.425250 -1.792300
C 0.394810 -3.432880 1.803930
C 1.833280 -3.233220 1.755290
C 2.502270 -3.343910 0.551830
C -1.734280 -3.532630 0.680930
C -0.348820 -3.799670 0.651540
C -3.849980 -0.835420 1.626370
C -3.492680 -2.086910 1.174460
C -2.305310 -2.726050 1.707260
C -1.472280 -2.057770 2.636330
C -0.142720 -2.502940 2.728450
