44
0 1
C        3.925839    0.685137   -0.004765 
C        3.925841   -0.685136    0.004798 
C        3.157868   -1.163148    1.213384 
C        3.157982    1.180073    1.196982 
C        2.587294    0.012971    1.885854 
C        2.308999    2.176577    0.746376 
C        3.157875    1.163140   -1.213367 
C        2.308937    2.166201   -0.776586 
C        3.157996   -1.180075   -1.196965 
C        2.587316   -0.012974   -1.885837 
C        2.308923   -2.166205    0.776592 
C        2.309000   -2.176583   -0.746372 
C        0.936212   -2.205426    1.180694 
C        1.218819    0.015494    2.244892 
C        0.434841   -1.225147    2.080352 
C        0.935957    2.221488    1.149812 
C        0.434638    1.254132    2.063577 
C        0.936238    2.205424   -1.180704 
C        0.113476    2.536173   -0.017375 
C        1.218830   -0.015496   -2.244892 
C        0.434867    1.225138   -2.080349 
C        0.935962   -2.221490   -1.149823 
C        0.113466   -2.536171    0.017375 
C        0.434648   -1.254136   -2.063582 
C       -1.280312   -2.349643    0.016106 
C       -0.977555   -1.205921    2.195292 
C       -1.858173   -1.886848    1.250817 
C       -0.977354    1.236392    2.178825 
C       -1.653289    0.017926    2.604359 
C       -1.280304    2.349651   -0.016112 
C       -1.858144    1.904008    1.224767 
C       -0.977541    1.205901   -2.195296 
C       -1.858172    1.886839   -1.250817 
C       -0.977346   -1.236370   -2.178837 
C       -1.858148   -1.903992   -1.224773 
C       -1.653262   -0.017921   -2.604376 
C       -3.125145    1.176350   -1.231000 
C       -3.125030   -1.193110   -1.214903 
C       -2.968022   -0.014590   -2.094312 
C       -3.125176   -1.176362    1.230985 
C       -2.968031    0.014593    2.094314 
C       -3.125054    1.193131    1.214880 
C       -3.697884   -0.782519    0.005433 
C       -3.697881    0.782524   -0.005420 
