44
0 1
C        3.895758   -0.222831   -0.563163 
C        3.388736   -1.491680   -0.709206 
C        2.740272   -1.926847    0.570914 
C        3.601068    0.248671    0.841299 
C        2.844072   -0.819086    1.513194 
C        3.018518    1.502896    0.733023 
C        3.136618    0.693167   -1.492386 
C        2.734727    1.779074   -0.737890 
C        2.295550   -1.470513   -1.732905 
C        2.095895   -0.105495   -2.164404 
C        1.476559   -2.448053    0.251904 
C        1.202932   -2.179380   -1.201227 
C        0.377208   -2.287537    1.153993 
C        1.683412   -0.475137    2.227392 
C        0.495026   -1.308345    2.162863 
C        1.818948    1.863958    1.452213 
C        1.212166    0.922183    2.280171 
C        1.398816    2.301477   -0.831922 
C        0.937013    2.593930    0.524025 
C        0.764917    0.385736   -2.283523 
C        0.480323    1.735509   -1.763517 
C       -0.110690   -1.846971   -1.616621 
C       -0.327822   -0.581958   -2.265455 
C       -0.923671   -2.541760    0.602622 
C       -1.154770   -2.423155   -0.795362 
C       -2.123849   -2.053994    1.293436 
C       -0.692258   -0.479766    2.492457 
C       -0.247382    0.916688    2.440479 
C       -1.963491   -0.825628    2.103623 
C       -0.422671    2.692641    0.777751 
C       -1.057927    1.849311    1.813925 
C       -0.878133    2.131425   -1.584510 
C       -1.298814    2.706609   -0.349479 
C       -1.694655   -0.086663   -2.299243 
C       -1.946255    1.260626   -2.031989 
C       -2.549036   -2.023144   -0.997366 
C       -3.152979   -1.871734    0.366428 
C       -2.794626   -0.875685   -1.713166 
C       -2.897935    0.180373    1.538781 
C       -2.413982    1.489487    1.345841 
C       -2.603793    2.109370    0.053724 
C       -3.089168    1.369257   -1.040055 
C       -3.639919   -0.466885    0.467206 
C       -3.614708    0.079858   -0.833874 
