44
0 1
C        3.559127    0.559166   -0.312411 
C        3.380484   -0.745471    0.383048 
C        2.849694   -1.645572   -0.532290 
C        2.888158    0.436026   -1.651121 
C        2.509650   -0.886628   -1.805663 
C        1.864796    1.469932   -1.739178 
C        2.874774    1.530097    0.410559 
C        1.982078    2.259076   -0.502502 
C        2.627244   -0.474452    1.611316 
C        2.279705    0.943944    1.639136 
C        1.661368   -1.411992    2.007936 
C        1.710630   -2.476499   -0.217451 
C        1.199885   -2.466618    1.072131 
C        1.167022   -1.245557   -2.185410 
C        0.768582   -2.386073   -1.355011 
C        0.574713    1.172585   -2.263058 
C        0.222869   -0.232641   -2.528321 
C       -0.479308    2.072256   -1.871701 
C        0.881663    2.884853    0.021820 
C       -0.256268    3.019144   -0.842707 
C        1.018229    1.403139    2.087198 
C        0.378489    2.516574    1.393437 
C        0.509743   -0.922340    2.688685 
C        0.130119    0.439766    2.676571 
C       -0.254646   -2.650520    1.280907 
C       -0.669715   -1.753968    2.303054 
C       -0.570122   -2.678269   -1.185804 
C       -1.127247   -2.848649    0.189645 
C       -1.154160   -0.632178   -2.468161 
C       -1.506500   -1.904891   -1.956912 
C       -1.889731    1.602329   -1.724190 
C       -2.214972    0.322832   -2.025468 
C       -1.456580    3.068787    0.027690 
C       -1.012062    2.643548    1.383221 
C       -2.413693    2.190694   -0.457411 
C       -1.340054    0.482181    2.447452 
C       -1.799773   -0.897647    2.170170 
C       -1.894312    1.540403    1.769500 
C       -2.825515    1.276222    0.635827 
C       -2.414399   -2.235440    0.228628 
C       -2.742093   -1.762665   -1.141530 
C       -3.115748   -0.426905   -1.105586 
C       -2.705132   -1.147507    1.125164 
C       -3.196993   -0.001070    0.318788 
