44
0 1
C        3.719202    0.688088    0.140156 
C        3.719082   -0.688259    0.140164 
C        3.022261   -1.165374   -1.091809 
C        3.022429    1.165214   -1.091885 
C        2.541618   -0.000256   -1.828031 
C        2.095771    2.139013   -0.687882 
C        2.898840    1.180877    1.300927 
C        1.966929    2.114973    0.817764 
C        2.898790   -1.180598    1.301015 
C        2.426827    0.000147    2.014646 
C        2.095807   -2.139098   -0.687654 
C        1.967012   -2.114854    0.817916 
C        0.914107   -2.273415   -1.437085 
C        1.207304   -0.000187   -2.356788 
C        0.439778   -1.206390   -2.267586 
C        0.913831    2.273129   -1.437180 
C        0.439682    1.206226   -2.267421 
C       -0.222874    2.890512   -0.797465 
C        0.648352    2.205091    1.399715 
C       -0.396046    2.824925    0.592838 
C        1.100974    0.000237    2.449284 
C        0.255505    1.175917    2.276266 
C        0.648468   -2.205010    1.400071 
C        0.255553   -1.175445    2.276499 
C       -0.222815   -2.890761   -0.797251 
C       -0.396039   -2.825076    0.593364 
C       -1.055562   -1.219351   -2.220134 
C       -1.440531   -2.361483   -1.477060 
C       -1.055501    1.219152   -2.219985 
C       -1.440278    2.361303   -1.477207 
C       -1.820540   -0.000093   -2.121560 
C       -1.798909    2.506774    0.853571 
C       -2.468546    2.290591   -0.496151 
C       -1.149835    0.705571    2.361152 
C       -1.149872   -0.705095    2.361330 
C       -2.178418    1.463327    1.696507 
C       -1.799162   -2.506675    0.854057 
C       -2.468856   -2.290610   -0.495757 
C       -2.178571   -1.463009    1.696945 
C       -2.983920   -0.000142   -1.269369 
C       -3.252265    1.155058   -0.428001 
C       -3.233590    0.681879    1.018355 
C       -3.252340   -1.155127   -0.427785 
C       -3.233653   -0.681697    1.018504 
