44
0 1
C       -2.395580   -2.290934   -0.552710 
C       -1.294573   -2.628991   -1.305698 
C       -1.020984   -1.495410   -2.267744 
C       -2.970237   -1.013855   -1.135731 
C       -1.982303   -0.465021   -2.065032 
C       -3.457126   -0.250236   -0.086592 
C       -2.260623   -2.073014    0.889011 
C       -2.899509   -0.828128    1.207331 
C       -1.019579   -2.321260    1.468728 
C       -0.034385   -2.996517   -0.704365 
C        0.034006   -2.996658    0.703850 
C        0.369419   -1.263558   -2.284063 
C        1.019254   -2.321024   -1.469095 
C        0.852100    0.085858   -2.313858 
C       -1.545545    0.900955   -1.958159 
C       -0.110140    1.183116   -2.155415 
C       -3.196168    1.133562   -0.086372 
C       -2.331988    1.728277   -1.070847 
C       -2.234866    0.223575    1.894033 
C       -2.649608    1.469908    1.262667 
C       -0.369502   -1.263962    2.283927 
C       -0.852035    0.085631    2.313846 
C        1.294212   -2.629396    1.305308 
C        1.020678   -1.496015    2.267618 
C        2.260378   -2.073028   -0.889286 
C        2.395258   -2.291241    0.552434 
C        2.234894    0.223621   -1.894023 
C        2.899382   -0.828248   -1.207396 
C        2.649798    1.469901   -1.262559 
C        0.403015    2.420156   -1.618050 
C        1.750546    2.502373   -1.128752 
C       -1.673314    2.816468   -0.366748 
C       -1.750075    2.502451    1.129050 
C       -0.392514    3.165816   -0.658312 
C        0.110233    1.182626    2.155544 
C        1.673672    2.816180    0.367080 
C       -0.402820    2.419905    1.618234 
C        0.393006    3.165665    0.658556 
C        1.982290   -0.465603    2.065033 
C        2.970067   -1.014423    1.135737 
C        3.457049   -0.250658    0.086645 
C        3.196305    1.133113    0.086727 
C        1.545655    0.900324    1.958334 
C        2.332256    1.727697    1.071113 
