44
0 1
C        3.753091    0.040620    0.384259 
C        3.586017   -0.123200   -1.070938 
C        2.822655   -1.273783   -1.296117 
C        3.055362   -1.117553    1.015588 
C        2.474641   -1.912933    0.007856 
C        2.186582   -0.571596    2.051009 
C        3.078071    1.199635    0.788924 
C        2.124049    0.879471    1.883716 
C        2.775549    1.044655   -1.555529 
C        2.548899    1.901531   -0.407339 
C        1.712262   -0.923932   -2.200472 
C        1.660788    0.566022   -2.291238 
C        0.554090   -1.609463   -2.112256 
C        1.157768   -2.484646    0.187645 
C        0.302243   -2.569317   -0.986356 
C        1.020518   -1.268464    2.349398 
C        0.506489   -2.303182    1.422465 
C       -0.095299   -0.515072    2.817598 
C        0.900984    1.570290    2.008345 
C       -0.220994    0.871489    2.581266 
C        1.323587    2.508270   -0.309149 
C        0.564946    2.555107    0.983291 
C        0.386018    1.227428   -2.237352 
C        0.340688    2.355204   -1.376596 
C       -0.739582   -0.973402   -2.453214 
C       -0.861698    0.456542   -2.453630 
C       -1.071219   -2.703879   -0.872003 
C       -1.737856   -1.806540   -1.887378 
C       -0.971426   -2.276591    1.524655 
C       -1.345379   -1.198241    2.384421 
C       -1.776660   -2.512475    0.392134 
C       -1.628131    1.114361    2.159599 
C       -2.299220   -0.210056    2.026024 
C       -0.756011    2.838579    0.684544 
C       -0.920387    2.789968   -0.817501 
C       -1.897358    2.121250    1.254139 
C       -2.110194    0.978955   -1.981687 
C       -2.096846    2.173989   -1.134602 
C       -2.826105    1.844773    0.153013 
C       -2.895523   -1.264852   -1.302204 
C       -2.908780   -1.664683    0.161014 
C       -3.153639   -0.483358    0.927751 
C       -3.102965    0.112244   -1.398880 
C       -3.420025    0.616835   -0.004214 
