44
0 1
C       -3.336615   -0.051863    0.710804 
C       -2.914196    1.218955    1.242166 
C       -2.493509    2.067574    0.059266 
C       -3.336615    0.051864   -0.710803 
C       -2.618449    1.287600   -1.098988 
C       -2.914197   -1.218954   -1.242166 
C       -2.618450   -1.287599    1.098988 
C       -2.493511   -2.067573   -0.059266 
C       -1.499090   -1.195932    2.039269 
C       -1.910714    1.261316    2.174450 
C       -1.172179    0.068071    2.601303 
C       -1.235406    2.715160    0.432516 
C       -0.886224    2.287278    1.762091 
C       -0.209768    2.766717   -0.495189 
C       -1.499089    1.195932   -2.039269 
C       -0.392246    2.091743   -1.815676 
C       -1.910715   -1.261315   -2.174450 
C       -1.172180   -0.068070   -2.601303 
C       -1.235408   -2.715160   -0.432516 
C       -0.886225   -2.287277   -1.762091 
C       -0.392247   -2.091743    1.815676 
C       -0.209770   -2.766718    0.495189 
C        0.886228   -1.762101    2.287272 
C        0.209772    0.495189    2.766712 
C        0.392252    1.815670    2.091734 
C        1.235412   -0.432517    2.715157 
C        1.172171    2.601307   -0.068071 
C        1.499087    2.039272    1.195933 
C        0.886228    1.762101   -2.287272 
C        1.910718    2.174450   -1.261305 
C        0.209772   -0.495190   -2.766712 
C        0.392251   -1.815670   -2.091734 
C        1.235412    0.432517   -2.715157 
C        1.172170   -2.601307    0.068071 
C        1.910717   -2.174451    1.261305 
C        1.499086   -2.039273   -1.195932 
C        2.493505   -0.059269    2.067568 
C        2.618448    1.098996    1.287592 
C        2.914194   -1.242164    1.218945 
C        2.914194    1.242163   -1.218946 
C        2.493505    0.059268   -2.067569 
C        2.618447   -1.098997   -1.287593 
C        3.336615    0.710800    0.051864 
C        3.336615   -0.710801   -0.051865 
