44
0 1
C        3.406699   -0.095028   -0.671281 
C        2.998005    1.294366   -0.678660 
C        2.084698    1.463592   -1.753152 
C        2.587353   -0.790024   -1.749923 
C        1.745250    0.156291   -2.341078 
C        2.051235   -2.019057   -1.166304 
C        3.328230   -0.833391    0.483702 
C        2.483692   -2.071372    0.221700 
C        2.802409   -0.232559    1.695825 
C        2.398348    1.905887    0.520667 
C        2.280468    1.145523    1.679095 
C        1.037498    2.387781   -1.370370 
C        1.238039    2.688796    0.058223 
C       -0.235009    2.192476   -1.889005 
C        0.344452   -0.139387   -2.628163 
C       -0.604879    0.885933   -2.509994 
C        0.749104   -2.353113   -1.442289 
C       -0.085722   -1.495263   -2.332872 
C       -0.138011   -2.867612   -0.380649 
C        1.545691   -2.200761    1.256462 
C        1.795357   -1.092302    2.198468 
C        0.182501   -2.605785    0.989032 
C        0.991682    1.116517    2.399180 
C        0.683090   -0.304985    2.708836 
C        0.116436    2.838625    0.874635 
C       -0.034441    1.966121    2.054215 
C       -1.350868    2.633417   -1.098552 
C       -1.180060    2.936773    0.250769 
C       -2.000885    0.605226   -2.106832 
C       -2.449047    1.626816   -1.228194 
C       -1.423267   -1.772223   -2.047408 
C       -1.477603   -2.687612   -0.856059 
C       -2.408947   -0.725803   -1.841419 
C       -2.495140   -2.237984   -0.012815 
C       -3.116760   -1.002665   -0.629349 
C       -0.854428   -2.050906    1.817442 
C       -0.583871   -0.800884    2.595835 
C       -2.180316   -1.941742    1.335076 
C       -1.446555    1.490613    2.081236 
C       -2.156437    2.102453    1.032006 
C       -2.952351    1.334465    0.088535 
C       -3.257167   -0.013054    0.399177 
C       -1.720998    0.121807    2.369022 
C       -2.697476   -0.559967    1.625231 
