44
0 1
C       -3.547894   -1.270403   -0.694452 
C       -2.940079   -0.436772   -1.770925 
C       -3.023327    0.892313   -1.413429 
C       -3.798758   -0.348767    0.469161 
C       -3.593196    0.989196    0.006214 
C       -3.016907   -0.795596    1.551953 
C       -2.579179   -2.211581   -0.304560 
C       -2.291391   -2.043445    1.118261 
C       -1.609173   -0.989632   -2.062543 
C       -1.417390   -2.109626   -1.200581 
C       -0.484194   -0.123247   -2.382342 
C       -1.845265    1.767401   -1.482925 
C       -0.602061    1.310697   -2.069851 
C       -2.750423    1.845815    0.712604 
C       -1.810548    2.479656   -0.265940 
C       -2.026904    0.048660    2.192237 
C       -1.918415    1.394815    1.815600 
C       -0.978390   -1.977068    1.552805 
C       -0.776958   -0.713160    2.321853 
C       -0.111220   -2.409524   -0.702103 
C        0.111219   -2.409532    0.702101 
C        0.776954   -0.713145   -2.321861 
C        0.978386   -1.977060   -1.552819 
C        2.026904    0.048673   -2.192239 
C        0.574779    1.980301   -1.670684 
C        1.918417    1.394831   -1.815594 
C       -0.569389    2.719986    0.397914 
C       -0.574776    1.980286    1.670697 
C        0.569392    2.719991   -0.397893 
C        0.484192   -0.123266    2.382336 
C        0.602061    1.310682    2.069858 
C        1.417394   -2.109630    1.200565 
C        1.609173   -0.989645    2.062535 
C        2.291391   -2.043436   -1.118268 
C        3.016909   -0.795586   -1.551958 
C        2.579183   -2.211582    0.304549 
C        2.940076   -0.436783    1.770917 
C        3.798759   -0.348765   -0.469165 
C        3.547895   -1.270405    0.694442 
C        2.750424    1.845819   -0.712591 
C        1.810548    2.479654    0.265959 
C        1.845264    1.767388    1.482938 
C        3.593195    0.989194   -0.006207 
C        3.023325    0.892299    1.413432 
