44
0 1
C       -3.440348    1.088103    0.426110 
C       -3.325712   -0.174328    1.041617 
C       -3.334510   -1.182193   -0.007930 
C       -3.130030    0.922988   -1.039858 
C       -3.105510   -0.428044   -1.323790 
C       -1.967314    1.743622   -1.345605 
C       -2.409917    1.959860    0.969817 
C       -1.693940    2.537663   -0.109812 
C       -2.173981   -0.144635    1.969381 
C       -1.653083    1.215219    1.968008 
C       -1.264698   -1.240788    2.024319 
C       -2.432827   -2.203525    0.040369 
C       -1.404217   -2.329930    1.079147 
C       -1.947850   -1.031752   -1.970510 
C       -1.699337   -2.265827   -1.277866 
C       -0.871933    1.217218   -2.070274 
C       -0.829792   -0.228206   -2.367694 
C        0.384696    1.938557   -1.940628 
C       -0.398928    2.989471    0.138163 
C        0.528789    2.962831   -0.985925 
C       -0.259810    1.506504    2.133430 
C        0.306458    2.556661    1.323170 
C        0.076647   -0.936954    2.445613 
C        0.586194    0.421932    2.483663 
C        1.147188   -1.815301    2.079161 
C       -0.250919   -2.907227    0.449404 
C       -0.411526   -2.753497   -1.033784 
C        1.029198   -2.738486    1.009743 
C        0.437706   -0.891552   -2.398723 
C        0.636659   -2.176076   -1.777954 
C        1.704108    1.236513   -2.049908 
C        1.719347   -0.146921   -2.268128 
C        1.870543    2.872442   -0.392115 
C        1.728527    2.529007    0.967658 
C        2.593965    1.773180   -1.071519 
C        2.026764    0.392827    2.092219 
C        2.382335   -0.995908    1.869468 
C        2.552900    1.346696    1.245304 
C        3.166101    0.923766   -0.053399 
C        2.183695   -2.528405    0.119223 
C        1.979281   -2.230265   -1.210951 
C        2.652237   -0.932903   -1.542673 
C        3.016392   -1.412119    0.711386 
C        3.296454   -0.440220   -0.347328 
