44
0 1
C       -3.423185    0.697939   -0.988296 
C       -3.301791   -0.782107   -0.836145 
C       -3.295119   -1.057880    0.523292 
C       -3.169516    1.295577    0.370489 
C       -3.128194    0.267276    1.283877 
C       -2.012261    2.188921    0.248538 
C       -2.403258    1.123872   -1.827338 
C       -1.645566    2.191631   -1.158904 
C       -2.155518   -1.208540   -1.653056 
C       -1.627467   -0.039720   -2.318375 
C       -1.239616   -2.201326   -1.158377 
C       -2.327098   -1.959817    1.051097 
C       -1.345817   -2.563132    0.255901 
C       -1.990426    0.109907    2.183939 
C       -1.645500   -1.268867    2.199244 
C       -0.983377    2.207013    1.243793 
C       -0.938234    1.092848    2.222379 
C        0.252464    2.799186    0.828774 
C       -0.329520    2.392491   -1.540691 
C        0.539024    2.934576   -0.567225 
C       -0.241546    0.103917   -2.607079 
C        0.419640    1.356884   -2.322155 
C        0.044681   -2.211669   -1.729807 
C        0.547963   -1.077344   -2.499771 
C        1.196825   -2.746440   -0.972512 
C       -0.095953   -2.628983    1.077670 
C       -0.301604   -1.721265    2.232727 
C        1.134676   -2.736479    0.505840 
C        0.334597    0.609701    2.646043 
C        0.685477   -0.803230    2.570230 
C        1.515475    2.407880    1.451906 
C        1.544715    1.340227    2.310445 
C        1.916990    2.413726   -0.842847 
C        1.783666    1.408519   -1.903205 
C        2.531330    2.139643    0.353017 
C        1.976076   -0.972750   -2.271579 
C        2.354586   -2.084929   -1.369956 
C        2.544415    0.215714   -1.772778 
C        2.270956   -1.895477    0.975883 
C        2.043980   -0.947246    1.993390 
C        2.590093    0.353745    1.847398 
C        3.129289    0.822969    0.607249 
C        3.010688   -1.475663   -0.182583 
C        3.232959   -0.091298   -0.460442 
