44
0 1
C        3.864168   -0.864810   -0.202879 
C        3.143097   -2.024775   -0.097688 
C        2.327021   -1.983470    1.163904 
C        3.579711   -0.017514    1.015036 
C        2.524230   -0.673193    1.785348 
C        3.366192    1.277957    0.544279 
C        3.338305   -0.087195   -1.390158 
C        3.149263    1.208583   -0.975543 
C        2.142219   -2.081763   -1.213342 
C        2.184717   -0.841489   -1.934725 
C        1.036730   -2.395500    0.843514 
C        0.915720   -2.497134   -0.650045 
C       -0.089578   -1.865129    1.549665 
C        1.360072    0.047387    2.213426 
C        0.064053   -0.632614    2.247388 
C        2.298158    2.032421    1.067768 
C        1.330062    1.465483    1.930923 
C        1.908609    1.915408   -1.261518 
C        1.543341    2.633469   -0.091134 
C        0.949393   -0.184611   -2.244582 
C        0.857042    1.267857   -2.005543 
C       -0.292136   -2.107875   -1.256172 
C       -0.274452   -0.967424   -2.142767 
C       -1.354269   -2.239508    0.969742 
C       -1.458459   -2.378824   -0.446143 
C       -2.595802   -1.644452    1.457066 
C       -1.165169    0.147806    2.398056 
C       -2.427614   -0.363849    2.130981 
C        0.038832    2.135875    1.620805 
C        0.193303    2.800330    0.306505 
C       -1.152237    1.560227    1.923541 
C       -0.432014    1.838420   -1.843719 
C       -0.799428    2.598297   -0.648262 
C       -1.546964   -0.308056   -2.335633 
C       -1.595186    1.085953   -2.214683 
C       -2.775028   -1.890761   -0.856443 
C       -3.504030   -1.505537    0.386667 
C       -2.791677   -0.836301   -1.746364 
C       -3.224171    0.637563    1.312604 
C       -2.355607    1.759009    1.080689 
C       -2.161289    2.227154   -0.234605 
C       -2.744755    1.468926   -1.315825 
C       -3.847078   -0.054688    0.250588 
C       -3.527293    0.338345   -1.090721 
