44
0 1
C       -2.748669   -2.261791    0.249309 
C       -3.196446   -0.967624    0.822666 
C       -3.375575   -0.075515   -0.236908 
C       -2.405353   -2.006975   -1.196709 
C       -2.795325   -0.710679   -1.489113 
C       -1.021739   -2.394221   -1.396389 
C       -1.587917   -2.664376    0.895451 
C       -0.588589   -3.006702   -0.125372 
C       -2.250737   -0.622733    1.880660 
C       -1.189635   -1.668901    1.925784 
C       -1.879081    0.696532    2.018717 
C       -2.884669    1.267686   -0.168485 
C       -2.345724    1.710578    1.052333 
C       -1.871264    0.238661   -2.062915 
C       -2.118989    1.535009   -1.406029 
C       -0.114410   -1.536670   -2.081422 
C       -0.553080   -0.173120   -2.406191 
C        1.288432   -1.770999   -1.829644 
C        0.721834   -2.971978    0.235797 
C        1.679237   -2.653096   -0.790974 
C        0.150279   -1.363997    2.129431 
C        1.151900   -2.237302    1.483447 
C       -0.485821    1.038124    2.389253 
C        0.547139    0.040373    2.402072 
C       -1.357960    2.756821    1.019589 
C       -0.216489    2.340963    1.916059 
C       -1.138834    2.516537   -1.418253 
C       -0.826693    3.219049   -0.174084 
C        0.444342    0.873449   -2.431529 
C        0.119666    2.180021   -2.047953 
C        2.291326   -0.665867   -1.837077 
C        1.855994    0.609599   -2.035809 
C        2.884315   -2.139851   -0.111786 
C        2.471352   -1.843596    1.304120 
C        3.246524   -0.930953   -0.726989 
C        1.848516    0.486909    2.060391 
C        2.826545   -0.455548    1.523811 
C        3.363620    0.083094    0.311030 
C        1.016509    2.678980    1.264411 
C        0.675565    3.259289   -0.036347 
C        1.228934    2.716201   -1.184397 
C        2.270931    1.722644   -1.129072 
C        2.045783    1.741424    1.329053 
C        2.824255    1.410550    0.110061 
