44
0 1
C        3.925007   -0.152106   -0.893127 
C        4.085524   -0.647248    0.399872 
C        3.725185    0.426352    1.354451 
C        3.399062    1.251943   -0.832791 
C        3.294940    1.610490    0.527851 
C        2.228454    1.299983   -1.684401 
C        2.897855   -0.946829   -1.627004 
C        1.919035   -0.082943   -2.165982 
C        3.066549   -1.735909    0.588742 
C        2.469093   -2.007203   -0.722821 
C        2.592488    0.011557    2.070074 
C        2.191365   -1.347858    1.631299 
C        2.006682    2.036729    1.031467 
C        1.536691    1.044993    2.036582 
C        1.146143    2.060369   -1.279798 
C        1.048789    2.469470    0.122700 
C       -0.218150    1.756198   -1.730612 
C        0.539332   -0.501239   -2.283399 
C       -0.539340    0.501258   -2.283389 
C        1.132282   -2.348873   -0.756177 
C        0.218149   -1.756182   -1.730634 
C        0.792033   -1.650980    1.579105 
C        0.357120   -2.426317    0.487230 
C        0.198401    0.720347    2.146730 
C       -0.198430   -0.720344    2.146724 
C       -0.357119    2.426340    0.487248 
C       -1.132289    2.348880   -0.756162 
C       -0.792030    1.650971    1.579115 
C       -2.469106    2.007198   -0.722822 
C       -1.919040    0.082961   -2.165969 
C       -2.897856    0.946828   -1.626988 
C       -1.146134   -2.060351   -1.279811 
C       -1.048780   -2.469453    0.122674 
C       -2.228463   -1.299963   -1.684403 
C       -1.536666   -1.045002    2.036596 
C       -2.006665   -2.036742    1.031456 
C       -2.191377    1.347852    1.631304 
C       -3.066572    1.735887    0.588751 
C       -2.592474   -0.011575    2.070080 
C       -3.924996    0.152096   -0.893120 
C       -3.399052   -1.251940   -0.832795 
C       -3.294927   -1.610502    0.527851 
C       -4.085533    0.647226    0.399861 
C       -3.725181   -0.426368    1.354441 
