44
0 1
C       -3.952253    0.001639    1.318334 
C       -4.510555   -0.000024    0.038878 
C       -3.977002   -1.190017   -0.673982 
C       -3.059749   -1.194986    1.512676 
C       -3.077249   -1.933274    0.284327 
C       -1.817851   -0.750768    2.027534 
C       -3.059797    1.199056    1.509167 
C       -1.817498    0.756181    2.025691 
C       -3.977266    1.188272   -0.677087 
C       -3.077400    1.933750    0.279578 
C       -3.138549   -0.738063   -1.719005 
C       -3.138684    0.733611   -1.720774 
C       -1.832476   -2.167833   -0.355353 
C       -1.832277   -1.401893   -1.648553 
C       -0.608191   -1.360562    1.607044 
C       -0.622841   -2.095945    0.383122 
C        0.663631   -0.736168    1.984456 
C       -0.608430    1.364891    1.604033 
C        0.663684    0.741325    1.982459 
C       -1.832193    2.166733   -0.360995 
C       -1.832235    1.397638   -1.651835 
C       -0.623111    2.097434    0.377766 
C       -0.663656   -0.741420   -1.982517 
C       -0.663602    0.736126   -1.984475 
C        0.623135   -2.097408   -0.377762 
C        0.608472   -1.364847   -1.604014 
C        1.832242   -1.397617    1.651761 
C        1.832225   -2.166795    0.360959 
C        3.138629   -0.733613    1.720723 
C        1.832278    1.401909    1.648570 
C        3.138542    0.738029    1.718994 
C        0.622834    2.095899   -0.383163 
C        0.608150    1.360546   -1.607015 
C        1.832498    2.167737    0.355350 
C        1.817509   -0.756143   -2.025631 
C        1.817901    0.750812   -2.027575 
C        3.077399   -1.933694   -0.279565 
C        3.977214   -1.188261    0.677104 
C        3.059792   -1.199017   -1.509147 
C        3.976992    1.190003    0.673993 
C        3.077238    1.933339   -0.284276 
C        3.059756    1.195013   -1.512678 
C        4.510502    0.000006   -0.038834 
C        3.952240   -0.001604   -1.318288 
