44
0 1
C        3.143733   -1.257071   -1.266101 
C        3.481750   -0.668307    0.070546 
C        2.845428   -1.441057    1.042750 
C        2.132847   -2.322982   -1.032880 
C        1.997404   -2.487651    0.332230 
C        0.924483   -1.949648   -1.782079 
C        2.523769   -0.251985   -2.015206 
C        1.177847   -0.695618   -2.409783 
C        3.208703    0.759883    0.015279 
C        2.657238    1.047746   -1.332651 
C        2.600420    1.364767    1.129938 
C        2.008450   -0.847537    2.052757 
C        1.939072    0.537771    2.149501 
C        0.694414   -2.514017    0.967358 
C        0.753080   -1.632784    2.106742 
C       -0.386581   -2.259470   -1.255052 
C       -0.497093   -2.615784    0.172207 
C       -1.452247   -1.579333   -1.872442 
C        0.129702    0.273979   -2.570907 
C       -1.208587   -0.250704   -2.492201 
C        1.646059    1.974103   -1.502937 
C        0.363918    1.603602   -2.165421 
C        1.742595    2.507750    0.894711 
C        1.312151    2.826995   -0.382129 
C        0.638395    1.189073    2.483916 
C        0.518772    2.382165    1.760329 
C       -0.433641   -1.051179    2.571729 
C       -0.538708    0.426502    2.672240 
C       -1.716723   -2.314077    0.849034 
C       -1.647307   -1.539410    2.055700 
C       -2.759789   -1.521298   -1.230876 
C       -2.874814   -1.835320    0.111558 
C       -2.287988    0.608429   -2.161355 
C       -3.306458   -0.143218   -1.442870 
C       -0.715324    2.345350   -1.491388 
C       -0.179528    2.988678   -0.349135 
C       -0.660390    2.667581    0.961437 
C       -2.001388    1.797972   -1.379268 
C       -1.792496    0.840949    2.119370 
C       -2.593711   -0.373885    1.919083 
C       -3.395902   -0.580156    0.830780 
C       -3.504021    0.460541   -0.176819 
C       -1.854422    1.883608    1.111399 
C       -2.633109    1.645050   -0.069094 
