44
0 1
C        3.299073    0.605900    0.454360 
C        2.766189    0.218612    1.667997 
C        2.431255   -1.247797    1.614944 
C        3.299073   -0.605900   -0.454360 
C        2.709573   -1.719509    0.284258 
C        2.766189   -0.218612   -1.667997 
C        2.709573    1.719509   -0.284258 
C        2.431255    1.247797   -1.614944 
C        1.721519    2.493033    0.357330 
C        1.637092    0.909992    2.268594 
C        1.179606    2.075026    1.677044 
C        1.180062   -1.439787    2.247649 
C        0.674540   -0.125862    2.716282 
C        0.271484   -2.361079    1.677288 
C        1.721519   -2.493033   -0.357330 
C        0.613028   -2.939623    0.424953 
C        1.637092   -0.909992   -2.268594 
C        1.179606   -2.075026   -1.677044 
C        1.180062    1.439787   -2.247649 
C        0.674540    0.125862   -2.716282 
C        0.613028    2.939623   -0.424953 
C        0.271484    2.361079   -1.677288 
C       -0.271484    2.361079    1.677288 
C       -0.613028    2.939623    0.424953 
C       -0.674540    0.125862    2.716282 
C       -1.180062    1.439787    2.247649 
C       -1.179606   -2.075026    1.677044 
C       -1.637092   -0.909992    2.268594 
C       -0.613028   -2.939623   -0.424953 
C       -0.271484   -2.361079   -1.677288 
C       -1.721519   -2.493033    0.357330 
C       -0.674540   -0.125862   -2.716282 
C       -1.180062   -1.439787   -2.247649 
C       -1.179606    2.075026   -1.677044 
C       -1.721519    2.493033   -0.357330 
C       -1.637092    0.909992   -2.268594 
C       -2.431255    1.247797    1.614944 
C       -2.766189   -0.218612    1.667997 
C       -2.709573    1.719509    0.284258 
C       -2.709573   -1.719509   -0.284258 
C       -2.431255   -1.247797   -1.614944 
C       -2.766189    0.218612   -1.667997 
C       -3.299073   -0.605900    0.454360 
C       -3.299073    0.605900   -0.454360 
