44
0 1
C        3.300290   -0.457147   -0.606429 
C        2.722209    0.245985   -1.645589 
C        2.448497    1.649395   -1.203433 
C        3.300292    0.457138    0.606428 
C        2.738236    1.738323    0.198250 
C        2.722209   -0.245994    1.645587 
C        2.738230   -1.738331   -0.198251 
C        2.448492   -1.649403    1.203431 
C        1.757161   -2.330809   -1.031092 
C        1.522035   -0.227851   -2.327948 
C        1.094215   -1.512283   -2.089440 
C        1.192088    2.043704   -1.739454 
C        0.544135    0.876208   -2.381964 
C        0.415787    2.942723   -0.981701 
C        1.757170    2.330803    1.031092 
C        0.746026    3.100832    0.415769 
C        1.522038    0.227846    2.327947 
C        1.094222    1.512279    2.089440 
C        1.192083   -2.043707    1.739453 
C        0.544134   -0.876210    2.381964 
C        0.746016   -3.100833   -0.415769 
C        0.415778   -2.942723    0.981701 
C       -0.351240   -1.804224   -2.071250 
C       -0.520286   -2.927879   -1.194115 
C       -0.840308    0.641500   -2.281426 
C       -1.325924   -0.755468   -2.121087 
C       -1.012099    2.840840   -1.109123 
C       -1.629752    1.741503   -1.733783 
C       -0.520276    2.927882    1.194116 
C       -0.351234    1.804225    2.071251 
C       -1.593260    2.985071    0.292480 
C       -0.840309   -0.641498    2.281426 
C       -1.325922    0.755472    2.121088 
C       -1.012106   -2.840835    1.109123 
C       -1.593269   -2.985065   -0.292479 
C       -1.629757   -1.741497    1.733782 
C       -2.543052   -0.995050   -1.390683 
C       -2.620435   -2.056423   -0.432129 
C       -2.822794   -1.418413    0.936574 
C       -2.822792    1.418422   -0.936574 
C       -2.620429    2.056431    0.432131 
C       -2.543049    0.995056    1.390684 
C       -3.221526    0.136932   -0.751587 
C       -3.221525   -0.136924    0.751589 
