44
0 1
C       -3.429387   -1.106737    0.268267 
C       -3.475561    0.333984   -0.100632 
C       -2.983736    0.454375   -1.391294 
C       -2.702784   -1.823226   -0.835770 
C       -2.479594   -0.905639   -1.849973 
C       -1.554181   -2.505077   -0.256274 
C       -2.649559   -1.222004    1.417989 
C       -1.596837   -2.218667    1.184849 
C       -2.790295    1.068192    0.972168 
C       -2.246330    0.114530    1.909615 
C       -2.005320    2.191769    0.612619 
C       -1.962907    1.423246   -1.740864 
C       -1.566302    2.366340   -0.805881 
C       -1.170147   -0.724738   -2.421734 
C       -0.933312    0.719418   -2.522822 
C       -0.304043   -2.528279   -0.938454 
C       -0.111631   -1.620457   -2.089460 
C        0.836301   -2.825978   -0.108465 
C       -0.425671   -2.102591    1.900366 
C        0.746247   -2.638303    1.293966 
C       -0.959047    0.294322    2.517097 
C       -0.059304   -0.828533    2.595374 
C       -0.927226    2.527077    1.445068 
C       -0.353903    1.585357    2.379789 
C       -0.172895    2.846475   -0.786617 
C        0.189819    3.071298    0.598005 
C        0.366798    1.204898   -2.544621 
C        0.787705    2.278360   -1.618490 
C        1.211749   -1.132956   -2.382954 
C        1.416956    0.242544   -2.641258 
C        2.179636   -2.372049   -0.489310 
C        2.360956   -1.576604   -1.581081 
C        1.913433   -1.824720    1.761448 
C        1.360455   -0.678574    2.480544 
C        2.796815   -1.681115    0.719295 
C        1.080194    1.703398    2.267846 
C        1.389184    2.616196    1.110939 
C        1.927899    0.591801    2.182255 
C        2.121735    1.917924   -1.099616 
C        2.568644    0.740823   -1.813372 
C        3.137905   -0.337293   -1.164283 
C        3.259846   -0.359721    0.286162 
C        2.375769    1.964641    0.282189 
C        2.831928    0.756298    0.997376 
