36
0 1
C        3.239543   -0.467395   -0.504836 
C        3.239542    0.467397    0.504838 
C        2.486786    1.688303    0.047485 
C        2.486774    0.082528   -1.686946 
C        1.996808    1.417676   -1.312507 
C        1.572749   -0.889930   -2.077860 
C        2.486787   -1.688302   -0.047484 
C        1.572748   -2.003257   -1.047121 
C        2.486773   -0.082526    1.686947 
C        1.996809   -1.417675    1.312507 
C        1.572745    2.003258    1.047121 
C        1.572746    0.889930    2.077861 
C        0.195157    2.321109    0.764842 
C        0.668501    1.730512   -1.602124 
C       -0.195157    2.373067   -0.584026 
C        0.195153   -0.584030   -2.373029 
C       -0.195149    0.764843   -2.321072 
C        0.195160   -2.321110   -0.764841 
C       -0.668497   -1.602142   -1.730495 
C        0.668501   -1.730512    1.602124 
C       -0.195155   -2.373068    0.584026 
C        0.195151    0.584030    2.373028 
C       -0.668500    1.602142    1.730495 
C       -0.195150   -0.764843    2.321071 
C       -1.996810    1.312512    1.417672 
C       -1.572747    2.077874   -0.889922 
C       -1.572746    1.047133   -2.003252 
C       -2.486790    1.686957    0.082526 
C       -1.996807   -1.312512   -1.417673 
C       -2.486776    0.047486   -1.688302 
C       -3.239545    0.504847   -0.467391 
C       -1.572746   -2.077875    0.889921 
C       -1.572747   -1.047134    2.003251 
C       -2.486777   -0.047487    1.688301 
C       -2.486789   -1.686959   -0.082527 
C       -3.239545   -0.504849    0.467389 
