36
0 1
C        3.500420    0.615742   -0.416764 
C        3.500461   -0.614731    0.417609 
C        2.878445   -1.618444   -0.303825 
C        2.606942    0.317948   -1.620830 
C        2.271357   -1.038470   -1.575136 
C        1.506794    1.279372   -1.617730 
C        2.877571    1.619114    0.304508 
C        1.722418    2.129914   -0.461835 
C        2.606305   -0.317308    1.621417 
C        2.270257    1.039060    1.575582 
C        1.723148   -2.129644    0.462097 
C        1.506735   -1.279094    1.617986 
C        0.889120   -1.451283   -1.641270 
C        0.640902   -2.313381   -0.439337 
C        0.160681    0.885551   -1.929659 
C       -0.150985   -0.554403   -2.009363 
C       -0.880087    1.723099   -1.403652 
C        0.639817    2.313609    0.439188 
C        0.887942    1.451348    1.641442 
C       -0.626017    2.348850   -0.106700 
C        0.160342   -0.885719    1.929373 
C       -0.151764    0.554092    2.009082 
C       -0.625331   -2.349206    0.106079 
C       -0.880091   -1.723611    1.403194 
C       -1.523983   -0.975322   -1.755532 
C       -1.753891   -2.024409   -0.754298 
C       -2.278012    1.325856   -1.389646 
C       -2.599089   -0.038421   -1.632459 
C       -1.755255    2.024202    0.753442 
C       -1.525221    0.974498    1.755391 
C       -2.858586    1.702240   -0.080548 
C       -2.277901   -1.326787    1.388785 
C       -2.857869   -1.702340    0.080573 
C       -3.502665   -0.499533   -0.482812 
C       -2.599660    0.038401    1.632572 
C       -3.503250    0.499211    0.483076 
