90 

C 2.83274 -1.13136 -2.93291
C 3.45933 .05781 -2.51136
C 4.44941 -.06681 -1.51032
C 4.78044 1.04698 -.64877
C 4.16114 2.26017 -.85659
C 1.47813 -1.11593 -3.47025
C .71885 .07821 -3.54981
C 1.36167 1.33447 -3.19369
C 2.74483 1.32178 -2.67921
C 3.18376 2.40582 -1.91905
C -.86258 2.36889 -3.18996
C .54218 2.47324 -2.95738
C -.53055 -2.44898 -2.97774
C .87528 -2.34297 -3.20213
C -3.17636 -2.38759 -1.95043
C -2.73505 -1.29884 -2.70229
C -1.34986 -1.30874 -3.21078
C -.70537 -.05012 -3.55450
C -1.46449 1.14404 -3.46999
C 4.44371 1.25158 1.77216
C 3.76493 2.50919 1.54614
C 4.98561 .54821 .69462
C 3.70889 3.04729 .27098
C 2.52728 3.76500 -.14075
C 1.43664 3.94325 .73105
C .21240 4.31249 .13107
C .98287 3.51676 -2.04602
C 2.26822 3.43876 -1.51448
C .01035 4.19985 -1.25390
C 4.25372 -1.58130 1.66842
C 3.61792 -.84463 2.74017
C 4.86603 -.89377 .63596
C 3.68958 .53305 2.77683
C 2.49798 1.28633 3.08670
C -1.22044 .77410 3.33869
C -2.38650 1.48361 3.05288
C .06262 1.44610 3.16037
C 1.26845 .67048 3.34700
C 1.20569 -.78782 3.33845
C 2.37287 -1.49602 3.05307
C 1.40032 3.18602 1.98176
C 2.56162 2.52447 2.36651
C -1.05579 4.09315 .80734
C -1.10131 3.30052 1.98304
C .12662 2.70834 2.50283
C -2.32758 2.70838 2.29298
C 2.06744 -3.97247 -.18449
C 3.23091 -3.19201 .05560
C 3.42076 -2.73277 1.37480
C 2.31739 -2.71585 2.28514
C -.13732 -2.71642 2.48397
C 1.09264 -3.30565 1.96598
C 1.05245 -4.09107 .78515
C -2.57101 -2.53288 2.33776
C -1.40816 -3.19146 1.95371
C -1.28300 -.68441 3.33656
C -.07643 -1.45850 3.14989
C -2.51092 -1.29958 3.06648
C 3.77307 -2.39473 -1.04554
C 4.55711 -1.26771 -.74060
C 1.41904 -4.00435 -1.49122
C 1.84727 -3.15663 -2.47440
C 3.03982 -2.35289 -2.26812
C -.00472 -4.18531 -1.28171
C -.97435 -3.49791 -2.07455
C -2.26200 -3.42303 -1.54831
C -1.43920 -3.94083 .69786
C -.21248 -4.30626 .10145
C -2.52624 -3.75738 -.17784
C -4.45068 -1.25685 1.74365
C -3.77070 -2.51268 1.51200
C -3.70960 -3.04237 .23359
C -4.98809 -.54621 .66864
C -4.26071 1.57684 1.65993
C -3.62961 .83323 2.72954
C -3.70125 -.54474 2.75643
C -4.86820 .89603 .62016
C -2.06673 3.98029 -.16762
C -3.23122 3.19817 .06232
C -3.42694 2.73060 1.37771
C -3.03040 2.37365 -2.26634
C -1.83698 3.17839 -2.46132
C -1.41257 4.02000 -1.47102
C -4.55342 1.27891 -.75254
C -3.76877 2.40792 -1.04634
C -4.15765 -2.24802 -.89063
C -4.77763 -1.03602 -.67715
C -4.44329 .08321 -1.53003
C -3.45015 -.03537 -2.52837
C -2.82147 1.15661 -2.93859
