90 

C -3.21723 1.58677 -2.21980
C -4.17754 1.53543 -1.18852
C -4.72371 .29977 -.73269
C -2.79063 .33715 -2.82958
C -3.44873 -.83760 -2.45703
C -4.41597 -.87213 -1.40625
C -.69705 1.39368 -3.53467
C -1.43544 .21641 -3.38806
C -.71867 -1.03386 -3.36883
C -1.43840 -2.23110 -2.92956
C -2.76543 -2.11525 -2.47309
C -.72223 -3.35217 -2.47827
C .71299 1.39072 -3.53534
C 1.44694 .21043 -3.38942
C .72534 -1.03700 -3.36937
C 2.76831 -2.12667 -2.47492
C 1.44063 -2.23713 -2.93039
C .72025 -3.35526 -2.47854
C 4.19607 1.51788 -1.19201
C 3.23516 1.57341 -2.22291
C 2.80298 .32551 -2.83195
C 3.45660 -.85185 -2.45928
C -4.41500 -.86087 1.41318
C -4.24651 -2.11600 .69980
C -4.72334 .30568 .73008
C -4.24690 -2.12142 -.68244
C -3.24232 -2.89997 -1.38890
C -2.37656 -3.79516 -.71517
C -1.17674 -4.13041 -1.38151
C -3.21540 1.60432 2.20612
C -2.78840 .35976 2.82568
C -4.17660 1.54495 1.17599
C -3.44708 -.81769 2.46308
C -2.76398 -2.09525 2.48979
C -.72047 -3.33226 2.50477
C -1.43653 -2.20752 2.94622
C -.71625 -1.00699 3.37464
C -1.43291 .24327 3.38422
C -.69438 1.42160 3.52060
C -2.37623 -3.78961 .74632
C -3.24186 -2.88896 1.41263
C -1.17590 -4.11955 1.41495
C -4.03616 2.38369 -.00964
C -1.14451 2.68658 2.96563
C -2.33163 2.77202 2.24281
C -2.37185 3.71711 1.16205
C -3.16758 3.42844 -.01404
C .01477 3.44721 2.60523
C .01642 4.24587 1.44122
C -1.20802 4.36273 .71926
C 1.24087 4.35723 .71809
C .72782 -1.00995 3.37425
C 1.44920 .23750 3.38304
C .71556 1.41870 3.51985
C 1.17089 2.68184 2.96472
C 2.35806 2.76232 2.24098
C 2.40212 3.70681 1.15992
C -1.14692 2.66303 -2.98979
C -2.33344 2.75417 -2.26644
C -2.37275 3.70774 -1.19315
C -1.20861 4.35689 -.75676
C 1.24029 4.35133 -.75792
C .01518 4.23424 -1.47901
C .01270 3.42653 -2.63676
C 1.16869 2.65828 -2.99105
C 2.40126 3.69744 -1.19541
C 2.35643 2.74443 -2.26894
C 3.19565 3.41467 -.01688
C 4.19669 1.52735 1.17276
C 4.05944 2.36656 -.01297
C .72224 -3.33540 2.50418
C 1.44307 -2.21370 2.94543
C 2.77061 -2.10697 2.48813
C 3.45839 -.83192 2.46070
C 2.80484 .34827 2.82358
C 3.23657 1.59112 2.20383
C -.00296 -4.60622 -.66915
C -.00242 -4.60121 .70601
C 2.37490 -3.79980 .74486
C 1.17358 -4.12472 1.41409
C 3.24459 -2.90278 1.41082
C 4.25095 -2.13912 -.68505
C 3.24286 -2.91343 -1.39099
C 2.37417 -3.80526 -.71669
C 1.17232 -4.13543 -1.38216
C 4.25186 -2.13375 .69721
C 4.73777 .28607 .72679
C 4.73741 .28029 -.73598
C 4.42441 -.89039 -1.40912
C 4.42553 -.87891 1.41023
