90 

C 3.00171 2.36891 -2.12138
C 3.33468 1.05654 -2.41242
C 4.27386 .41727 -1.52397
C 4.37187 -1.02808 -1.44475
C 3.55601 -1.80389 -2.22932
C 1.75566 2.94621 -2.57011
C -.52648 2.60880 -3.21732
C .78812 2.15467 -3.26470
C 1.06020 .72739 -3.48859
C 2.36577 .21860 -3.14488
C 2.53823 -1.17302 -3.06657
C 4.01964 -2.53875 .47533
C 3.24525 -3.42591 -.39328
C 4.59215 -1.38354 -.05060
C 2.99775 -3.04196 -1.70804
C 1.68718 -3.19173 -2.24808
C 2.18679 -3.99421 .37599
C .89973 -4.19736 -.15864
C .64448 -3.77592 -1.52344
C -2.26280 -1.92624 -3.04317
C -.96816 -2.43692 -2.92989
C -.72291 -3.49457 -1.96480
C -1.77505 -3.89609 -1.13109
C -1.63034 1.70555 -3.39890
C -1.40960 .33418 -3.63615
C -.04456 -.18442 -3.64361
C .14209 -1.58838 -3.37423
C 1.43172 -2.05046 -3.12525
C -2.48081 -.52469 -3.34934
C 1.27377 -3.38941 2.56224
C 3.38783 -2.49294 1.75019
C 2.35674 -3.51482 1.74386
C -.02218 -3.85623 2.12701
C -1.52292 -4.17331 .27974
C -.22058 -4.26505 .77914
C 1.08446 -2.17519 3.33054
C 1.98038 -1.08382 3.22849
C 3.20472 -1.26611 2.43765
C 3.89021 -.10939 1.93320
C 4.58299 -.18459 .70528
C 3.42989 1.19003 2.34559
C -.29642 -1.97541 3.47097
C -.85639 -.68344 3.56936
C .03460 .44030 3.62126
C 1.45636 .21973 3.46780
C 2.28606 1.34070 3.11366
C -1.87239 1.91460 3.17015
C -.50841 1.78557 3.40318
C -2.57575 -3.59245 1.04351
C -2.26978 -2.85887 2.21582
C -.99002 -3.05269 2.76815
C -2.96268 -1.60280 2.47931
C -2.25404 -.52481 3.18370
C -2.73722 .77454 3.05844
C 3.56154 2.36491 1.47862
C 3.99056 2.20900 .14386
C 4.51308 .93527 -.24492
C 3.35088 2.98252 -.86147
C 2.50852 3.26068 1.79474
C .51327 4.41395 1.01176
C 1.88299 4.05272 .79606
C 2.33598 3.91410 -.54090
C .35981 2.87836 2.94067
C 1.71862 2.64371 2.82428
C -.19581 3.91320 2.10778
C -.42661 4.56004 -.11516
C -.00454 4.23785 -1.43529
C 1.37555 3.93075 -1.65018
C -.94049 3.63211 -2.29235
C -1.71311 4.20516 .32978
C -3.55456 2.52218 .11030
C -2.63158 3.48826 -.50469
C -2.25707 3.30508 -1.84129
C -4.61613 .29551 -.01610
C -4.10293 1.42172 -.68522
C -4.38617 .10834 1.39161
C -3.78759 1.10593 2.12123
C -3.48854 2.36322 1.50570
C -2.41576 2.94972 2.28934
C -1.59466 3.88447 1.73926
C -3.58170 -3.12456 .11646
C -4.31392 -1.99757 .42042
C -4.03806 -1.26689 1.64269
C -4.15548 -1.20902 -1.89696
C -3.33041 -2.36214 -2.20394
C -3.07551 -3.31988 -1.22883
C -4.63771 -1.02756 -.61652
C -2.70220 2.14237 -2.58700
C -3.63406 1.22888 -2.05755
C -3.61390 -.07314 -2.61023
