90 

C 4.36307 1.42264 .22744
C 4.27851 .95544 -1.11548
C 4.33057 -.45289 -1.35073
C 3.55910 1.74196 -2.03594
C 2.88037 2.93171 -1.62205
C 2.85530 3.32650 -.28053
C 3.69173 2.59207 .62386
C 2.76648 1.12064 -3.06041
C 2.67813 -.26098 -3.17991
C 3.60529 -1.03217 -2.39923
C 3.29329 -2.39073 -2.00539
C 2.16208 -2.98539 -2.46857
C 1.62301 1.96311 -3.31523
C -.74247 2.23030 -3.44754
C .36968 1.41190 -3.67179
C .20814 -.04652 -3.72606
C 1.38805 -.86344 -3.56011
C 1.21721 -2.23029 -3.29233
C .55562 3.75964 -2.01722
C 1.71143 3.09025 -2.46878
C -.65255 3.41764 -2.66313
C .52104 4.25511 -.64284
C 1.40444 3.89693 1.62350
C 1.65241 3.99488 .24040
C -.74756 4.46863 -.06707
C -.97039 -4.22579 -1.31362
C 1.40811 -3.89030 -1.61886
C .07762 -3.89235 -2.13347
C -2.24839 -3.55464 -1.47530
C -3.43745 -1.57821 -2.12151
C -2.39275 -2.47741 -2.38345
C -2.05843 1.66164 -3.27075
C -2.24822 .26971 -3.29443
C -1.09959 -.61954 -3.52680
C -1.22602 -2.00885 -3.15002
C -.06271 -2.79082 -3.08863
C -3.38371 -.21280 -2.60875
C -.73888 -4.46593 .07696
C .53063 -4.25011 .64991
C 1.65921 -3.98747 -.23618
C 2.86190 -3.31654 .28210
C 3.69452 -2.58045 -.62460
C 2.88962 -2.92194 1.62368
C -1.96862 -4.11499 .76279
C -1.92100 -3.60873 2.03618
C -.63993 -3.41482 2.67285
C .56746 -3.75480 2.02437
C 1.72297 -3.08287 2.47317
C -4.15157 -1.59874 -.89927
C -3.76700 -2.47896 .14313
C -2.88733 -3.52832 -.20782
C 3.56695 -1.73070 2.03536
C 4.28268 -.94277 1.11287
C 4.36516 -1.40985 -.23013
C 4.33302 .46552 1.34790
C 2.77550 -1.11110 3.06168
C 2.68510 .27033 3.18108
C 3.60924 1.04323 2.39823
C 2.16246 2.99349 2.47110
C 3.29419 2.40127 2.00526
C -.73033 -2.22769 3.45737
C .38077 -1.40707 3.67909
C 1.63419 -1.95580 3.31946
C .21682 .05103 3.73372
C 1.39492 .87021 3.56463
C 1.22099 2.23668 3.29728
C -2.04775 -1.66162 3.28390
C -3.37780 .21047 2.62554
C -2.23992 -.26998 3.30826
C -1.09239 .62151 3.53791
C -1.22225 2.01063 3.16149
C -.06060 2.79474 3.09695
C -4.59317 -.24019 -.63315
C -4.59206 .23552 .65317
C -4.10558 -.61260 1.73164
C -3.72752 -1.95867 1.51000
C -2.78711 -2.50384 2.41186
C -2.79731 2.50227 -2.39681
C -3.73468 1.95540 -1.49250
C -4.11093 .60876 -1.71302
C -2.89354 3.52665 .22304
C -1.97825 4.11517 -.74988
C -1.93260 3.60902 -2.02332
C -4.15237 1.59494 .91797
C -3.77214 2.47574 -.12560
C .07517 3.89632 2.14110
C -3.43531 1.57586 2.13829
C -2.39178 2.47702 2.39765
C -2.25173 3.55439 1.48882
C -.97541 4.22809 1.32373
