90 

C -4.60865 .54643 -.12849
C -2.05696 3.49194 -1.70047
C -3.15319 2.75347 -1.21270
C -3.59765 1.68175 -2.02431
C -4.32662 .56644 -1.46932
C .02564 3.57293 -2.68356
C -1.31681 3.05759 -2.82459
C -1.55362 1.77764 -3.39396
C -2.76482 1.16797 -3.05571
C 1.07926 2.85678 -3.17316
C 1.15344 4.19758 .77736
C 1.31478 4.09976 -.61714
C .13637 4.22456 -1.39683
C -2.86086 -2.81637 -1.95700
C -3.78657 -1.88070 -1.44609
C -3.88107 -.64749 -2.13605
C -2.90918 -.27386 -3.09514
C .85628 1.53400 -3.75114
C -.41138 .93515 -3.77247
C -.49372 -.50629 -3.67707
C -1.80629 -1.10578 -3.38971
C -1.88143 -2.42209 -2.90772
C -4.08626 -1.90568 -.01439
C -4.47292 -.70089 .61773
C -2.26634 -3.84443 -1.11911
C -2.53276 -3.85952 .22752
C -3.42187 -2.86053 .79420
C -.90871 -4.07108 -1.58560
C .14114 -4.39812 -.69838
C 1.45153 -4.08647 -1.13280
C 2.03043 .77334 -3.54428
C 1.98014 -.61319 -3.34135
C .70058 -1.27944 -3.45785
C .58582 -2.65359 -2.94399
C -.68247 -3.19627 -2.68081
C 1.66479 -3.23541 -2.24499
C -2.89313 -2.49095 2.05533
C -3.07172 -1.20413 2.58445
C -4.00872 -.37565 1.91858
C -3.91987 1.07125 2.00961
C -2.98741 1.64072 2.83758
C -1.65984 -3.22110 2.27591
C .68770 -3.17807 2.71159
C -.58084 -2.63406 2.97047
C -.69595 -1.25648 3.47444
C -1.97582 -.59154 3.35345
C -2.02652 .79628 3.54644
C -.13534 -4.39368 .73747
C -1.44609 -4.07971 1.16958
C .91447 -4.06057 1.62250
C -3.39371 2.70636 .22986
C -2.45444 3.35798 1.13807
C -4.17079 1.63944 .71996
C -2.33625 2.85174 2.44725
C -1.07582 2.87717 3.16073
C -.02233 3.59026 2.66593
C -.13349 4.23324 1.37497
C -1.31189 4.10326 .59615
C -1.15068 4.19244 -.79902
C 1.32013 3.07645 2.81050
C 2.76858 1.18912 3.05477
C 1.55719 1.80048 3.38860
C 1.88658 -2.40195 2.93287
C 1.81111 -1.08239 3.40515
C .49824 -.48159 3.68804
C .41530 .96028 3.77326
C -.85247 1.55846 3.74773
C 2.91385 -.25218 3.10463
C 4.33098 .57767 1.47282
C 3.60127 1.69628 2.01981
C 3.15676 2.76272 1.20101
C 2.06030 3.50401 1.68356
C 4.61331 .54913 .13230
C 2.86653 -2.80250 1.98493
C 3.79209 -1.86997 1.46731
C 3.88621 -.63190 2.14830
C 3.42674 -2.86432 -.76586
C 2.53821 -3.85981 -.19216
C 2.27219 -3.83650 1.15437
C 4.47743 -.70333 -.60490
C 4.09146 -1.90397 .03582
C 2.99106 1.62277 -2.84097
C 3.92374 1.05921 -2.00900
C 4.01284 -.38697 -1.90779
C 3.07598 -1.22017 -2.56762
C 2.89773 -2.50337 -2.02938
C 3.39739 2.70640 -.24101
C 2.45775 3.35163 -1.15363
C 2.33963 2.83633 -2.45920
C 4.17489 1.63633 -.72354
