90 

C 2.90381 -2.06326 -2.44305
C 2.88864 -.74483 -2.88834
C 3.82461 .13705 -2.27709
C 3.66669 1.57229 -2.35366
C 2.58579 2.09382 -3.02583
C 1.74297 -2.91204 -2.58039
C .49677 -2.38609 -2.95324
C .42764 -.97767 -3.37211
C 1.64512 -.20817 -3.43196
C 1.56041 1.19553 -3.54575
C -2.05841 -1.03128 -3.00439
C -.84066 -.29950 -3.36093
C -.87542 1.13833 -3.32990
C .32261 1.85043 -3.44150
C -3.21750 -.29757 -2.71964
C -1.98122 -2.39793 -2.53300
C -.69177 -3.07340 -2.49217
C -3.01669 -2.88177 -1.70441
C 3.41938 3.25014 -.56908
C 2.34160 3.87380 -1.33451
C 4.05939 2.12790 -1.06773
C 1.91742 3.28088 -2.52001
C .52195 3.13440 -2.77007
C 1.36917 4.36865 -.41447
C -.01348 4.27610 -.67049
C -.44789 3.63311 -1.89668
C -3.19092 1.14366 -2.57918
C -2.01416 1.85843 -2.77212
C -1.79604 3.07111 -1.99880
C -2.72031 3.39577 -1.00018
C 3.96144 1.02291 1.14537
C 3.29267 2.20326 1.67430
C 4.36879 1.04035 -.19671
C 3.08637 3.30653 .81710
C 1.89965 4.14461 .92653
C 1.04459 3.99129 1.98146
C 1.28230 2.94364 2.95018
C 2.38699 2.06185 2.81408
C 2.25046 .80597 3.41079
C -.38120 4.11069 1.78096
C -2.24558 3.87503 .29166
C -.91657 4.27439 .47753
C 3.01857 -.33601 2.96256
C 3.77717 -.28988 1.78957
C 3.92243 -1.52606 1.01860
C 2.26706 -1.49989 3.32275
C 2.43398 -2.66920 2.62941
C 3.33269 -2.70646 1.50947
C .60254 -4.70070 .35839
C 1.61463 -4.27537 1.19001
C 1.28523 -3.49813 2.35580
C .02000 2.46786 3.37714
C -.17918 1.10442 3.69532
C .97855 .33702 3.85970
C .94467 -1.09019 3.72281
C -.20120 -1.75481 3.28636
C -.02530 -3.03421 2.59541
C 4.14708 -1.44276 -.41954
C 4.34452 -.17536 -.99890
C 2.86001 -3.76231 .63347
C 2.98916 -3.62536 -.73523
C 3.62071 -2.44426 -1.26638
C .73510 -4.53885 -1.08642
C 1.87248 -3.95571 -1.60506
C -.54168 -4.16927 -1.61352
C -1.48548 -4.35265 -.53267
C -3.22479 -3.12389 .62254
C -2.68772 -3.72326 -.57470
C -2.51075 1.26281 2.81642
C -1.42919 .43914 3.33992
C -1.43775 -.98087 3.12938
C -3.61618 .62725 2.25813
C -3.64510 -.78985 2.08495
C -2.54852 -1.59455 2.42871
C -2.37154 -2.85357 1.70989
C -1.09526 -3.55423 1.76714
C -.76244 -4.42949 .71268
C -4.03087 2.44913 .67442
C -2.96453 3.18844 1.30915
C -2.26078 2.65193 2.41577
C -1.00781 3.22175 2.68681
C -4.41630 1.23357 1.19806
C -4.75715 .31766 -1.05684
C -4.16004 1.52236 -1.59248
C -3.88166 2.59848 -.76074
C -4.87826 .17494 .32576
C -4.21698 -2.18367 .17779
C -4.08716 -2.03862 -1.26863
C -4.24348 -.79200 -1.84125
C -4.49316 -1.07768 .94784
