90 

C -2.80096 1.50489 -2.86077
C -2.67369 .15075 -3.12244
C -3.62577 -.72222 -2.48764
C -3.32435 -2.12327 -2.27157
C -2.16291 -2.64184 -2.75663
C -1.67371 2.39126 -2.97775
C -.37601 1.91272 -3.20913
C -.19503 .47683 -3.44914
C -1.35574 -.36799 -3.48266
C -1.17778 -1.76872 -3.38926
C 2.25368 .74436 -2.94087
C 1.11365 -.11082 -3.27661
C 1.23616 -1.52739 -3.07382
C .08105 -2.32453 -3.15468
C 3.43333 .13555 -2.49607
C .73265 2.73068 -2.76113
C .45227 3.90431 -2.02594
C 2.05950 2.15155 -2.64868
C -.84615 -4.51362 .16211
C -1.85633 -4.04418 -.70096
C -1.44738 -3.66674 -2.01317
C -.08323 -3.52858 -2.33338
C .93254 -3.93105 -1.44371
C .52285 -4.52870 -.23053
C 2.56236 -3.78204 .87327
C 1.31513 -4.31746 .96726
C 3.49247 -1.27632 -2.18800
C 2.39181 -2.10106 -2.38421
C 2.23261 -3.26575 -1.51988
C 3.10213 -3.40377 -.42352
C -3.04257 -3.39745 -.12194
C -3.79841 -2.49739 -.94380
C -.88405 -4.20525 1.58918
C -1.93758 -3.49602 2.10133
C -3.08055 -3.17571 1.26577
C .44142 -3.90476 2.03426
C -3.67216 -1.98839 1.80550
C -4.36444 -1.08164 .98594
C -4.45061 -1.37759 -.40978
C -4.38745 .28938 1.39288
C -2.81113 -1.50232 2.85962
C -2.68303 -.14828 3.12196
C -3.63245 .72605 2.48480
C -2.16808 2.64387 2.75734
C -3.32909 2.12686 2.26935
C -.38789 -1.91244 3.21509
C -1.68523 -2.38995 2.97986
C 3.42588 -.13906 2.51209
C 2.24430 -.74657 2.95428
C 1.10423 .10963 3.28672
C -.20570 -.47685 3.45571
C -1.36555 .36910 3.48581
C 1.22906 1.52592 3.08448
C .07443 2.32423 3.16196
C -1.18575 1.76964 3.39267
C .72112 -2.73148 2.77051
C 2.99776 -2.81116 1.84960
C 2.04894 -2.15362 2.66197
C -4.45015 1.38242 .40450
C -4.36007 1.08625 -.99104
C -4.38360 -.28473 -1.39777
C -3.66437 1.99198 -1.80901
C -3.07296 3.17856 -1.26753
C -3.03908 3.40056 .12015
C -3.79847 2.50162 .94014
C -1.44917 3.66776 2.01566
C -1.85400 4.04616 .70201
C -.84046 4.51430 -.15818
C -.87437 4.20597 -1.58510
C -1.92724 3.49774 -2.10001
C -.08621 3.52834 2.34004
C .93278 3.92962 1.45343
C .52747 4.52752 .23891
C 4.40765 1.46002 1.11430
C 3.48798 1.27256 2.20475
C 2.38756 2.09835 2.39847
C 4.14621 2.45230 .18447
C 3.10528 3.40017 .44011
C 2.23210 3.26317 1.53381
C 4.09141 -2.10611 1.25051
C 4.87679 .15592 .68834
C 4.35420 -.80963 1.63954
C 4.09812 2.10186 -1.23194
C 4.36009 .80510 -1.62099
C 4.87851 -.16123 -.66845
C 4.40855 -1.46487 -1.09506
C 4.14312 -2.45682 -.16562
C 1.32341 4.31575 -.95617
C 2.56984 3.77917 -.85819
C 3.00695 2.80817 -1.83361
