90 

C -2.55802 -3.43333 .72557
C -3.45734 -2.58438 1.39806
C -4.30452 -1.67237 .69493
C -2.56209 -3.43006 -.73226
C -3.46517 -2.57752 -1.39518
C -4.30833 -1.66896 -.68255
C -.26404 -4.35479 -.74221
C -1.35718 -3.83715 -1.46162
C -1.06069 -3.22505 -2.70754
C -1.91652 -2.19438 -3.24494
C -3.10644 -1.91513 -2.63670
C .27290 -2.87632 -3.04237
C 1.35996 -3.30973 -2.27352
C 1.06883 -4.17951 -1.18879
C -3.86333 1.96028 -1.38925
C -4.40833 .83713 -.71903
C -4.34930 -.39789 -1.40328
C -3.03276 1.78974 -2.52295
C -2.77186 .52126 -3.06389
C -3.57435 -.54393 -2.58381
C -4.40489 .83337 .74665
C -4.34213 -.40543 1.42334
C -3.37772 3.12517 -.66786
C -3.37477 3.12191 .70372
C -3.85699 1.95290 1.42071
C -2.22675 3.65108 -1.38735
C -1.13987 4.26331 -.71559
C .10047 4.25248 -1.38883
C -1.07826 -1.11531 -3.74216
C -1.42860 .23559 -3.58695
C -.36699 1.20672 -3.47424
C -.70594 2.55234 -2.98505
C -2.00867 2.81683 -2.50929
C .30801 3.39327 -2.50147
C -3.02047 1.77608 2.54913
C -2.75633 .50456 3.08129
C -3.56115 -.55790 2.59920
C -3.09250 -1.92912 2.64168
C -1.89960 -2.21183 3.24242
C -1.99637 2.80317 2.53618
C .32085 3.37879 2.51966
C -.69097 2.53542 3.00290
C -.34915 1.18717 3.48211
C -1.41016 .21582 3.59545
C -1.05877 -1.13568 3.74132
C -1.13634 4.25963 .74650
C -2.22026 3.64415 1.42022
C .10759 4.24487 1.41325
C -.26023 -4.35855 .71837
C -1.34939 -3.84435 1.44632
C -1.04649 -3.23922 2.69415
C .28887 -2.89259 3.02373
C 1.37187 -3.32174 2.24640
C 1.07504 -4.18563 1.15860
C 3.08639 -3.48301 -.01883
C 1.91629 -4.18334 -.01739
C 3.54522 -.26475 2.45782
C 2.56822 -1.18477 2.83722
C 2.57736 -2.49696 2.20514
C 3.49364 -2.73392 1.16162
C 1.70008 2.95187 2.50904
C 2.05763 1.67081 2.96043
C 1.02319 .74823 3.43388
C 1.33005 -.66359 3.44171
C .28153 -1.56446 3.63144
C 3.28121 1.16063 2.48481
C 4.68146 .72681 .67978
C 4.46809 -.51960 1.39480
C 4.39804 -1.72343 .71237
C 4.67785 .73083 -.70217
C 2.35441 3.55700 1.40391
C 3.39836 2.88360 .73012
C 3.96172 1.76847 1.39619
C 2.34692 3.56494 -1.39550
C 1.36360 4.35787 -.67791
C 1.36721 4.35421 .69648
C 3.95397 1.77662 -1.40794
C 3.39445 2.88772 -.73172
C .26248 -1.54455 -3.64230
C 1.31195 -.64432 -3.45356
C 1.00532 .76770 -3.43606
C 3.26778 1.17503 -2.49654
C 2.04194 1.68799 -2.96242
C 1.68704 2.96639 -2.50073
C 4.39406 -1.71910 -.74740
C 3.48732 -2.72736 -1.19733
C 2.56554 -2.48474 -2.23447
C 4.46057 -.51151 -1.42319
C 3.53205 -.25071 -2.47962
C 2.55320 -1.16884 -2.85898
