78 

C 1.518110 0.485690 -3.321480
C 2.855090 0.425130 -2.878860
C 3.446800 -0.802690 -2.442590
C 0.743980 -0.747110 -3.400140
C 1.359010 -1.937310 -2.994570
C 2.692860 -1.966340 -2.482800
C -2.680080 0.778560 -3.068290
C -1.344370 0.547500 -3.520320
C -0.728760 -0.704990 -3.411780
C -3.435100 -0.271710 -2.567170
C -2.842730 -1.570970 -2.471640
C -1.504150 -1.803140 -2.847740
C 4.314400 -1.405160 -0.219070
C 3.457150 -2.581050 -0.236540
C 4.314450 -0.532310 -1.303620
C 2.719340 -2.884420 -1.359570
C 1.395850 -3.446680 -1.215860
C 0.812720 -3.630200 0.064410
C -0.583760 -3.741630 0.107640
C -0.799500 -2.895800 -2.183600
C 0.597270 -2.955530 -2.282980
C -1.381880 -3.507940 -1.043850
C 4.309460 1.399610 0.218090
C 4.309510 0.491740 1.344260
C 4.313130 0.896890 -1.080200
C 4.310680 -0.883900 1.130380
C 3.440420 -1.735300 1.930850
C 3.448390 1.064250 2.368420
C 2.707890 0.243130 3.190020
C 2.682700 -1.188640 2.956130
C 1.514600 -3.141190 1.247520
C 2.852020 -2.727230 1.083450
C 1.348170 -1.646830 3.182090
C 0.736370 -2.593260 2.351800
C 2.713550 2.618810 -1.793300
C 2.683240 3.132280 -0.436510
C 3.455530 1.497130 -2.091170
C 3.437610 2.518180 0.552320
C 2.844640 2.280150 1.832980
C 1.347540 3.556450 -0.157390
C 0.731340 3.310610 1.075210
C 1.506080 2.628700 2.104810
C 0.800800 1.848470 3.117390
C -0.596010 1.941100 3.187120
C 1.382720 0.648150 3.600520
C -0.584500 1.766310 -3.274490
C 0.811840 1.752550 -3.154340
C 1.390400 2.771230 -2.354070
C 0.588160 3.447010 -1.396210
C -0.808230 3.326620 -1.396340
C -1.386660 2.643980 -2.497380
C -3.452470 2.242800 -1.260790
C -2.710090 2.070310 -2.408270
C -1.357110 2.760820 2.253150
C -0.741410 3.294950 1.115150
C -1.515000 3.353080 -0.119130
C -2.852180 2.907050 -0.108270
C -2.718320 1.031980 3.013870
C -2.691110 2.249530 2.225060
C -3.444570 2.338240 1.063730
C -3.456430 -0.050380 2.588320
C 0.584150 -0.521880 3.705630
C -0.812320 -0.466170 3.599180
C -1.395080 0.826730 3.557470
C -2.682260 -3.069890 0.852510
C -1.347960 -3.345320 1.283390
C -0.736260 -2.624940 2.315980
C -3.439970 -2.111090 1.508800
C -2.851680 -1.378590 2.588370
C -1.514410 -1.587760 2.982290
C -4.307980 -1.282070 -0.640470
C -3.447020 -2.237040 -1.322190
C -2.707030 -3.144270 -0.596320
C -4.309630 -1.221340 0.750430
C -4.312490 1.236430 0.669160
C -4.310730 1.172140 -0.775980
C -4.307270 -0.062770 -1.418790
C -4.313190 0.062310 1.417270
