58

 C     1.6008354961     -0.0138273152     4.3219823817
C     0.7255752266     -1.1599786934     4.2413235701
C     1.3479322476     -2.2073179861     3.5063657344
C     2.6673231651     -0.2682417139     3.414954381
C     2.5568579518     -1.6278925539     2.9429383632
C     2.7215117062     0.7656615945     2.4180929497
C     0.859694015     1.0737068113     3.7441950396
C     1.5842419669     1.6484684233     2.6477685148
C     -0.5931792902     -0.7242400033     3.8495748403
C     -0.4932513216     0.7137628924     3.4970385532
C     -1.3427710305     -1.5388957224     3.012175896
C     0.6541936638     -2.847348356     2.4344207907
C     -0.7143240652     -2.6384890459     2.2730159845
C     2.6208472511     -1.9250906644     1.564003017
C     1.4600382424     -2.7410392931     1.2195323759
C     3.0975464812     0.470344925     1.0790543039
C     3.0680106146     -0.9344896735     0.6272306666
C     2.7538120486     1.4556766425     0.1254104733
C     0.8923952636     2.2538247231     1.5672670343
C     1.6492976267     2.3627332871     0.3623621409
C     -1.2134326731     1.2549587689     2.3875857162
C     -0.5502088267     2.1554467918     1.4518235656
C     -2.3158363252     -0.9455688277     2.140606499
C     -2.3384792181     0.4682756886     1.895064412
C     -1.3313448762     -2.6741038412     0.9632950656
C     -2.4986600025     -1.8328353557     1.0192033577
C     0.8745056828     -2.6997172007     -0.0731171859
C     -0.5809043388     -2.7119977877     -0.2417767478
C     2.7348305178     -1.1671778093     -0.7178705749
C     1.648880512     -2.0580674135     -1.0869897496
C     2.772612018     1.1998783582     -1.2864495369
C     2.7616212984     -0.1250486978     -1.7118722431
C     1.0763755867     2.7428419345     -0.8835693682
C     1.8770720098     2.1481724304     -1.938945128
C     -1.1778560369     2.4845468677     0.1573740756
C     -0.3428064152     2.8842596425     -1.0210064043
C     -2.9996187167     0.8979086293     0.7220434568
C     -2.463316271     1.9812853015     -0.1079680545
C     -3.1015854618     -1.3849842511     -0.136403933
C     -3.5863330475     -0.049141993     -0.1558346233
C     -1.1873529919     -2.1831404991     -1.4903244958
C     -2.5002795498     -1.6630775202     -1.4342830109
C     1.0984885211     -1.6365718983     -2.335458242
C     1.8847272906     -0.5112821579     -2.8084106648
C     -0.3148696486     -1.7100024708     -2.601527537
C     1.3112685062     1.8614481658     -3.1628678044
C     1.3193845342     0.4452090231     -3.6318381512
C     -0.8565634921     2.7902556519     -2.3514766442
C     0.0075380321     2.3850039489     -3.4329967918
C     -2.913260198     1.7529413551     -1.4837141611
C     -3.4762757624     0.4381203821     -1.4971525143
C     -2.9251128146     -0.5868726726     -2.3351584008
C     -2.1629238825     2.1453005371     -2.5848600909
C     -0.8221159713     -0.8247746162     -3.6035599512
C     0.0301441665     0.1774804326     -4.1896083878
C     -0.6985633133     1.4063282467     -4.1950276207
C     -2.1468736623     -0.1897905333     -3.4107086476
C     -2.0094624194     1.2171651014     -3.6749264937


