58

 C     1.1529831749     -0.1096931207     3.9589857451
C     2.2594028436     -0.427910312     3.2263937005
C     2.1301094711     -1.8024946963     2.6877641424
C     0.2639321056     -1.3087742397     3.8948232868
C     0.808602337     -2.2505451805     2.932097397
C     -0.997023589     -0.8462249287     3.7116038372
C     0.3617273448     1.0677722396     3.6264163137
C     -0.9882089042     0.6447076626     3.681768571
C     0.7712945825     1.9511769425     2.564177817
C     2.7373620209     0.4209222443     2.1752496088
C     2.0665120335     1.6574451827     1.9126678668
C     2.6857349429     -1.7915014328     1.4015956951
C     3.1177461535     -0.4324118702     1.0748385786
C     2.0523586858     -2.5399476321     0.4073481863
C     -0.0071891833     -2.707451738     1.8122442097
C     0.7065036382     -2.9974462233     0.6142057981
C     -1.8667809924     -1.3107321176     2.6578755761
C     -1.3911791053     -2.223593571     1.6612503631
C     -1.95236225     1.0544161527     2.7657205072
C     -2.6295258912     -0.163377818     2.2762808759
C     -0.2873513553     2.5867824725     1.7609078774
C     -1.6661166093     2.1229386189     1.8497621734
C     0.0908017435     3.210842261     0.517540541
C     2.318751908     2.186887899     0.616127675
C     1.3954199784     3.0893733373     0.0443746527
C     3.116831806     0.0097294479     -0.2816148308
C     2.8759241395     1.3932069966     -0.4653683622
C     2.211092399     -2.1948594495     -0.9841660609
C     2.7647210886     -0.9397613552     -1.3605169993
C     0.0741202669     -3.0465702064     -0.695602583
C     1.0841365409     -2.756566618     -1.6966438426
C     -2.0017483665     -2.1468076365     0.3119920968
C     -1.268252329     -2.637842666     -0.8717764469
C     -3.2699562636     -0.1389961742     1.0543924155
C     -3.0164513409     -1.1790210039     0.0833068682
C     -2.5125277951     2.1854706579     0.6826551866
C     -3.3681151209     1.1122367714     0.3812256912
C     -0.7627370272     3.1749121415     -0.6862478017
C     -2.0185089732     2.6585788604     -0.6125898317
C     1.3864861502     2.9119711122     -1.4108382251
C     2.3173615018     1.8876097767     -1.7245949247
C     0.0702183828     2.8934828053     -1.8729445854
C     2.3286310045     -0.4048644661     -2.6359159769
C     2.0043019337     1.0244261737     -2.7571646941
C     0.7290180831     -2.2524849495     -2.9467981739
C     1.4446064469     -1.1140443556     -3.4555895971
C     -1.6111582043     -2.1389030133     -2.1978328617
C     -0.6583144868     -2.047390495     -3.2172448768
C     -3.2012749793     -0.5523109878     -1.2334819205
C     -3.3521697418     0.8548649958     -1.0473781764
C     -2.513204335     1.7766871465     -1.6928020643
C     -2.4916631533     -0.9731409084     -2.3301679906
C     -0.3282611147     1.9417194849     -2.8899091758
C     0.729858568     1.149285753     -3.4480491322
C     0.4511137428     -0.1589097681     -3.9754895371
C     -0.8025766893     -0.7165477165     -3.8514424396
C     -1.6767925916     1.3510777832     -2.7837403338
C     -1.8682146366     -0.0073982494     -3.2196818189


