58

 C     1.4115149403     0.0292754828     4.014081411
C     2.5585185344     -0.1778534614     3.2405515071
C     2.4736789965     -1.5124368967     2.6484429105
C     0.5472213304     -1.1488644338     3.890003028
C     1.2138244616     -2.0892288869     3.0529167427
C     -0.7767967837     -0.7195046793     3.5429602944
C     0.5951668026     1.1786552201     3.7851034329
C     -0.7811722502     0.6972742139     3.5397074237
C     0.9029443904     2.0973156953     2.794393089
C     2.9100264728     0.748992785     2.211660369
C     2.1366160742     1.9547769134     2.0458668421
C     2.7880520379     -1.4071607464     1.2841514674
C     3.1933992875     -0.0237483549     1.0132036125
C     2.0665002836     -2.1411958412     0.2758116013
C     0.4619665207     -2.7640685283     2.08500524
C     0.9779240879     -2.9398648037     0.7412694185
C     -1.5582327022     -1.4000145878     2.5323129111
C     -0.9703408265     -2.5633171289     1.9583123007
C     -2.4629931195     -0.6159223941     1.6886992197
C     -1.3461723378     1.4215283931     2.4793367429
C     -0.3608581589     2.3723294312     2.0222320641
C     -2.2487623532     0.8181477306     1.5561278373
C     -0.3613375006     2.8398063034     0.7153086147
C     2.1501103971     2.5369963879     0.7741639671
C     0.9485481371     3.1951057108     0.1835437547
C     3.1090409463     0.5243753868     -0.2751347259
C     2.8604992817     1.9509433692     -0.3160208262
C     2.0260083234     -1.6266384786     -1.0949032155
C     2.613813129     -0.3148087187     -1.3997775369
C     1.0035876887     -2.1279726209     -1.9586298535
C     -0.1382577605     -3.2413710166     -0.1166547611
C     -1.3576208473     -3.0216020426     0.6456121161
C     -0.101275493     -2.9220568525     -1.4599062719
C     -3.0726500478     -1.2880249739     0.5816038084
C     -2.4669499095     -2.5085089385     0.0161220418
C     -3.609723606     -0.5588809681     -0.4735127572
C     -2.4423914581     1.4910093428     0.2720148609
C     -1.4461804809     2.446159208     -0.2106125067
C     -3.2709246849     0.8202389367     -0.6827204631
C     -1.2042554273     2.5605612312     -1.6469594653
C     1.1414349627     3.3230688245     -1.1699747955
C     2.3609669196     2.5604576417     -1.5004623335
C     0.1029367883     2.9502731653     -2.1096173667
C     2.1639352139     0.3516586296     -2.5734290398
C     2.0693471232     1.794805119     -2.5955678769
C     0.735472925     2.1585137868     -3.1014164985
C     0.4791635132     -1.3674360068     -3.0666099654
C     1.0388139361     -0.1337530906     -3.3486774115
C     0.141030776     0.9969494184     -3.6421493036
C     -1.323684903     -2.5564805596     -2.1742342605
C     -2.5221342429     -2.4081321876     -1.4368712732
C     -3.3655153354     -1.2910064562     -1.7356899752
C     -0.9619805276     -1.5945404251     -3.1905916255
C     -3.0295346414     0.9698733617     -2.0795025773
C     -1.9385136394     1.6959119169     -2.5472131885
C     -1.2310430333     0.8390293454     -3.5267907738
C     -3.0247185409     -0.3707224923     -2.7044341326
C     -1.8080436298     -0.4889163793     -3.4524538786


