58

 C     1.219619649     -0.0278601624     4.1210608814
C     2.4083602352     -0.3387353632     3.5010036734
C     2.2494711008     -1.6348551786     2.7565878875
C     0.3305570857     -1.1958090848     3.9251063695
C     0.9325890372     -2.0823198028     2.913030258
C     -0.9452134012     -0.7504812134     3.7816618597
C     0.4627494577     1.1365412984     3.6903267362
C     -0.9190260796     0.7237257861     3.711262348
C     0.9271322453     1.9394300256     2.582890732
C     3.0217065407     0.5680284065     2.6293212908
C     2.2690061324     1.6682074751     2.1220251402
C     2.838003601     -1.4961776753     1.475412763
C     3.4258026344     -0.1932667872     1.4459084008
C     2.1658783387     -1.9843491857     0.2996450582
C     0.1690660418     -2.4909524863     1.7584111639
C     0.8423494022     -2.5757309541     0.4578842377
C     -1.7982653649     -1.2482316157     2.7466888314
C     -1.290661712     -2.2187176736     1.7935813247
C     -1.8031777726     1.08574289     2.721043497
C     -2.5115877742     -0.1320540047     2.2400156588
C     -0.0531826544     2.4400916394     1.5815442349
C     -1.4562121988     2.0786930885     1.7368173952
C     0.3988772712     2.8203604906     0.2362225147
C     2.5886445588     1.7862948394     0.6968895017
C     3.3094751421     0.5955618223     0.3013942175
C     1.7361173844     2.4073029536     -0.2215030264
C     2.5499044184     -1.3792870199     -0.9715960381
C     3.0902438353     -0.0194179383     -0.9549065226
C     1.838222593     -1.7677430516     -2.143926215
C     0.0343546973     -2.7845847992     -0.7483087929
C     0.5610267658     -2.4660309422     -2.0223113435
C     -2.0316994458     -2.332884424     0.6137924286
C     -1.4024347804     -2.7847331794     -0.6353976558
C     -3.1708137453     -0.1766882232     0.9856547963
C     -3.1046593254     -1.4274806013     0.2811739732
C     -2.3521773386     2.1525174673     0.6317994476
C     -3.2371065927     1.0276535912     0.2398331994
C     -0.5672413564     3.0102676223     -0.7853354875
C     -1.9324965345     2.7678628389     -0.5444275658
C     -0.3319861683     2.6040574523     -2.1856897884
C     1.9686135909     2.0726874058     -1.598382784
C     2.7056610292     0.8990330729     -1.9734532556
C     0.9265861518     2.2265554184     -2.6206134081
C     1.7894750434     -0.9425946123     -3.2956689071
C     2.1647867205     0.4139392167     -3.2085006948
C     1.0693683141     1.2260620689     -3.6240095378
C     -0.2974924677     -1.9784126133     -3.10867818
C     0.4323745459     -0.9860691688     -3.8190277756
C     -0.0579071258     0.3417267613     -3.9197378037
C     -2.2001875967     -2.3295112566     -1.6871875207
C     -3.2097434641     -1.4313041119     -1.1373849479
C     -1.6570508927     -1.7660844028     -2.8763362933
C     -3.2839641526     0.9913737809     -1.2028880954
C     -2.5045312673     2.0672636704     -1.6930166201
C     -1.5212605189     1.9114701957     -2.6799777888
C     -1.3813297993     0.6562025879     -3.4208735027
C     -3.1901410829     -0.2549962807     -1.8945386583
C     -2.214472941     -0.421290053     -3.0043116116


