58

 C     1.5638835673     -0.0811307912     4.1332725372
C     0.7582199025     -1.2712412396     4.0499258056
C     1.4278781528     -2.2374915771     3.2229079624
C     2.6514501051     -0.2040719454     3.2291536749
C     2.6022758118     -1.5341973591     2.6550695096
C     2.6540044397     0.9405651172     2.3634895266
C     0.7808280862     1.0438199658     3.7559662024
C     1.4933601934     1.7491674972     2.7191152218
C     -0.586502514     -0.8715137946     3.7523237039
C     -0.5412814003     0.58145514     3.4556139948
C     -1.3550257436     -1.6913396523     2.9318574787
C     0.6363707126     -3.0510574645     2.3901232067
C     -0.7768548598     -2.882649537     2.4051053906
C     1.0029971526     -3.2592059075     0.9756270491
C     2.8713079337     -1.6696016462     1.2970131055
C     2.0989487153     -2.5894447783     0.4657844577
C     2.9989073441     0.8126233093     0.9781531941
C     3.1628055688     -0.5137684552     0.4612746535
C     2.4969341303     1.8091882876     0.0868667892
C     0.777271224     2.4505798173     1.7364934685
C     1.4391523677     2.680927283     0.4964765399
C     -1.2801251924     1.1347077165     2.3761157359
C     -0.6908890543     2.2596555462     1.6652264449
C     -2.2023747531     -1.1057366361     1.8802327142
C     -2.2177447993     0.2795338504     1.622234198
C     -1.2731918477     -3.0290711264     1.0539946315
C     -0.2165961396     -3.2902840927     0.1642416735
C     -2.2266846387     -2.0107830052     0.7608233699
C     -0.2854586789     -2.759440196     -1.158337912
C     2.058627215     -2.0639245088     -0.8837061813
C     2.7514485991     -0.7999198421     -0.8849750475
C     0.9625113289     -2.2700477871     -1.7540348281
C     2.2796699358     1.5666432116     -1.3190783852
C     2.3864084373     0.2350280171     -1.8149749892
C     0.7318014433     3.1323895462     -0.6776831997
C     1.2653219144     2.4724558326     -1.8364285267
C     -1.3620401487     2.7526712896     0.5405260263
C     -0.6426527552     3.3650418803     -0.5923768255
C     -2.7438763332     0.7067372495     0.3336289568
C     -2.4965195545     2.0769029791     -0.031272161
C     -2.4053624998     -1.5744243281     -0.5683056098
C     -1.5320506285     -2.147932864     -1.5935868891
C     -2.9570944107     -0.2439808822     -0.7479338666
C     -1.5565750316     -1.5267230774     -2.8783883121
C     0.8767884924     -1.4061324445     -2.8876577045
C     1.5387512016     -0.1109242568     -2.8999051437
C     -0.3397794311     -1.2496608967     -3.5635967144
C     0.4451315099     2.1498337343     -2.9683516972
C     0.6817436484     0.8552752051     -3.5720914938
C     -0.4168154187     0.11240994     -4.1013317208
C     -1.4218174665     3.2333301725     -1.7557268365
C     -2.6502734118     2.5228691565     -1.3818308614
C     -0.9262772362     2.6656174983     -2.969087691
C     -3.0980890596     0.2395270012     -2.1105872934
C     -2.4618741752     -0.4497217717     -3.1526336665
C     -1.7352595281     0.5662065712     -3.9735599923
C     -2.9880854572     1.6629084055     -2.4026182014
C     -2.0076269857     1.8373506623     -3.478575473


