58

 C     1.4755533291     0.061906874     4.0094805811
C     0.6896673173     -1.1020194434     3.8321395894
C     1.2920907902     -1.9000328573     2.8309169705
C     2.5078927595     0.0674919839     2.9606103051
C     2.463148615     -1.1746271306     2.2878890213
C     2.4340765421     1.2557210169     2.2126090356
C     0.6772364759     1.1929154898     3.8167708212
C     1.3430874426     2.050392252     2.855118467
C     -0.6940011149     -0.6514295364     3.6050268477
C     -0.7066065351     0.8011268087     3.5838137669
C     -1.4735471578     -1.3248290718     2.6853415717
C     0.4900834333     -2.6885418988     1.933383498
C     -0.9210105142     -2.4542096049     1.9032618733
C     1.0915317997     -3.1077238     0.7359287388
C     2.7696436821     -1.2400922195     0.9126672258
C     2.3306647698     -2.4480259567     0.260133193
C     2.5867017061     1.2465950535     0.7825336946
C     2.8829040482     -0.0159547318     0.1209839385
C     1.9284911536     2.329696939     0.0317193535
C     0.5680116525     2.8539652254     2.0920218203
C     0.9818329277     3.1774890195     0.7192057837
C     -1.4963607333     1.5207348138     2.6422900076
C     -0.9025637359     2.7320041525     2.1134110839
C     -2.3995732964     -0.6250416783     1.8465434683
C     -2.4283611971     0.7990754352     1.761969829
C     -1.6360053392     -2.5537163074     0.6836164547
C     -2.6174391013     -1.4692197331     0.6827693498
C     0.3271091049     -3.4382974581     -0.4308498752
C     -1.0339265776     -3.0141045688     -0.5374654086
C     2.4114676091     -2.5933531946     -1.106865132
C     1.2201603009     -3.3017307681     -1.5593380986
C     2.7301008844     -0.1269305985     -1.3455621118
C     2.5918736848     -1.4264081872     -1.9540758876
C     1.7142592245     2.1711049083     -1.36173796
C     2.1289315541     0.9600751799     -2.0482659835
C     0.5395288098     2.6849458487     -2.0270810944
C     -0.1638643841     3.6287515218     0.0659275578
C     -1.3276227963     3.2396094755     0.894160809
C     -0.4559651091     3.3290269632     -1.2773955381
C     -2.8579015907     1.3754460778     0.4725543213
C     -2.2875374469     2.6259551538     0.0508988531
C     -1.8240849859     2.8185367477     -1.3244255647
C     -3.0727567905     -0.9428525118     -0.4879324056
C     -3.2698902623     0.494921992     -0.5821168829
C     -1.5030101409     -2.4238467247     -1.8228522728
C     -2.5627646677     -1.4629527574     -1.7717546019
C     0.7952987405     -2.6994402376     -2.7172161684
C     1.721965569     -1.6084011068     -3.0668299917
C     -0.556076344     -2.248749767     -2.8953571096
C     1.2354533559     0.7525008922     -3.1674385952
C     0.1779159131     1.7406661409     -3.0691595955
C     0.9418961929     -0.5577658969     -3.5726722448
C     -0.4698300101     -0.9889639804     -3.6130820595
C     -2.1624740721     1.8974507946     -2.3141987333
C     -3.0000853398     0.8170041416     -1.9349584859
C     -2.5923572255     -0.3728598374     -2.6625503833
C     -1.1568648958     1.375114724     -3.2502910972
C     -1.4760980339     -0.0381040606     -3.4842245392


