58

 C     1.0800641375     0.0399980511     3.9729213449
C     2.265470596     -0.3155732733     3.3865627869
C     2.1925902886     -1.7242559942     2.9259590798
C     0.2194269728     -1.162445084     3.9188924632
C     0.8438387954     -2.1530095554     3.0613303007
C     -1.0581250082     -0.7540300983     3.6717299151
C     0.304809581     1.1498743262     3.4437279892
C     -1.0503783438     0.7291847428     3.4874361884
C     0.7532675993     1.8767533457     2.2867795468
C     2.8551466517     0.4650443483     2.3531413363
C     2.1313549491     1.6094750875     1.8253096505
C     2.889995868     -1.7958628185     1.714197228
C     3.4746197939     -0.472526137     1.4323397467
C     2.2959081766     -2.4857786486     0.6421150557
C     0.1229786084     -2.6254482892     1.8928388873
C     0.9068783525     -2.8692675975     0.723737059
C     -1.8453577574     -1.304514415     2.6244227547
C     -1.2751812468     -2.2186646266     1.6692993852
C     -1.9717369118     1.0517338732     2.5114803338
C     -2.657483432     -0.2023530927     2.1542489778
C     -0.2535086054     2.3427370112     1.3126778431
C     -1.6513473918     1.9620354354     1.4461463073
C     0.1939905076     2.7409383274     -0.0322847807
C     2.5098212511     2.0085438425     0.5112049142
C     1.546097035     2.5523695947     -0.4162684776
C     3.7282543906     -0.0987142028     0.1237183341
C     3.4290621816     1.2323555787     -0.2523661039
C     2.5807113393     -2.0997482261     -0.7300159693
C     3.3402367132     -0.9659060954     -1.0085152779
C     0.3491786885     -2.7878595145     -0.6156588286
C     1.3982529776     -2.3903569834     -1.5199860904
C     -1.8404982649     -2.1961819634     0.3142394931
C     -1.0080689089     -2.4584282893     -0.8632414885
C     -3.315148729     -0.2934380543     0.9851185583
C     -3.0356190671     -1.4206006479     0.1018421747
C     -2.5804740268     1.9761296468     0.3079064192
C     -3.5352508706     0.8967730425     0.1727702533
C     -0.7505650881     2.8363374751     -1.094726973
C     -2.1411329322     2.5893519153     -0.918261917
C     -0.3752990518     2.452312393     -2.4874880501
C     1.9083139437     2.1151962176     -1.7703551429
C     3.008950676     1.2481106241     -1.6293574919
C     2.9408641368     -0.096371254     -2.1112181416
C     0.9011267758     1.8378574861     -2.7316371838
C     1.100141733     -1.6273441133     -2.6433772456
C     1.8699525332     -0.4463563997     -2.9431628172
C     0.9171421298     0.55820589     -3.3834346516
C     -1.3400377253     -1.8568490457     -2.1748286917
C     -0.2794841876     -1.3962779127     -3.0069162002
C     -0.3427058085     -0.0976475519     -3.6564824747
C     -3.4260738402     -0.9871136946     -1.1696193323
C     -3.8823160135     0.3961630243     -1.1086622726
C     -2.6001964037     -1.1663992494     -2.3400132629
C     -2.6515452534     2.1480197902     -2.1999073153
C     -1.515405269     1.9892446498     -3.1181944249
C     -1.5379779153     0.6346915727     -3.6457189065
C     -3.4387036839     1.017441074     -2.2868779392
C     -2.6988256567     0.0124444526     -3.1155168754


