58

 C     1.3176470386     0.1562949771     4.1756384542
C     2.4824884987     0.1492957948     3.4273799276
C     2.5490954818     -1.1155706574     2.6724694818
C     0.5103426492     -1.0001696833     3.717574727
C     1.2650925916     -1.7653535432     2.7849272303
C     -0.7973936147     -0.5261476345     3.4085671707
C     0.4676538926     1.3006939295     4.1467278202
C     -0.8885313954     0.8559529262     3.7448879481
C     0.8136609652     2.411257759     3.3861297445
C     2.8028455855     1.2376145893     2.5129451178
C     1.9526100938     2.3775810119     2.4917318469
C     3.0119663608     -0.8361024483     1.4001523608
C     3.2040590353     0.6321666288     1.2737811045
C     2.5797197471     -1.6194805367     0.2831792917
C     0.6232086475     -2.3132179822     1.636355528
C     1.3813064514     -2.4516902282     0.4037430439
C     -1.4735338626     -1.0398372096     2.2559754219
C     -0.8361073839     -2.1391311758     1.540802254
C     -2.3694907935     -0.1706202383     1.5201658093
C     -1.3923695729     1.7486914625     2.7757988225
C     -0.3703168449     2.7745337766     2.5903276263
C     -2.125637954     1.268440511     1.6600814356
C     1.4912792562     2.8569326656     1.2041936587
C     0.0372189498     3.0917515793     1.3068706179
C     2.9324675781     1.2291767869     0.0163848534
C     2.0127046311     2.3783543291     -0.0184851169
C     2.9065450781     -1.0797589881     -0.9814888975
C     2.9985642192     0.3817484432     -1.1275237058
C     2.3125730596     -1.5986939043     -2.1441001159
C     0.6957855346     -2.8831980129     -0.8099758146
C     1.1966351831     -2.4888118587     -2.0888486552
C     -1.4806405098     -2.6006776076     0.3997792768
C     -0.7216881312     -3.1488937331     -0.7384502632
C     -3.0221877876     -0.6738183601     0.3325050716
C     -2.7033039422     -2.0208754541     -0.0799249624
C     -3.4073253375     0.2551211725     -0.692623264
C     -2.0584195006     2.0389171559     0.4224603889
C     -0.8392183302     2.8439577681     0.1982516951
C     -2.7343992939     1.5480632477     -0.6944044206
C     1.1922192194     2.5414053784     -1.18890668
C     -0.23820131     2.8215731335     -1.0662718571
C     2.3175222575     0.7063394031     -2.3460393799
C     1.9669475945     -0.5131722705     -3.0093424535
C     1.3668517907     1.7510442068     -2.3509749368
C     0.2803200549     -2.1004070535     -3.161494917
C     0.6801465185     -0.7636601785     -3.5669286035
C     -1.5451689464     -3.0683658932     -1.8592696044
C     -2.7965256406     -2.3986259696     -1.4536384932
C     -1.0801635233     -2.4130908554     -3.0605446846
C     -3.4920231035     -0.1723285294     -2.055268534
C     -3.1731015127     -1.4886734174     -2.4332299004
C     -2.0664906322     -1.4423319437     -3.4304792092
C     -2.2234160224     1.7722087875     -2.0502950924
C     -0.9094196782     2.2417299011     -2.1926152071
C     0.0601703186     1.5329388867     -2.9956297442
C     -0.2974810306     0.305194239     -3.6250383305
C     -2.6571686063     0.7065555132     -2.8566470962
C     -1.7099240119     -0.0828305667     -3.6113477798


