58

 C     1.2876658693     0.0237246341     3.8590401137
C     2.4576728864     -0.2474627431     3.1741208063
C     2.3934797729     -1.636070033     2.69504228
C     0.4589188459     -1.1833018262     3.8491169595
C     1.097087588     -2.1698243896     3.0269544347
C     -0.8721318525     -0.8022194923     3.6089412221
C     0.4528444256     1.1402408194     3.4787705623
C     -0.9203525066     0.6497819313     3.3543263106
C     0.9401130371     2.0454536661     2.5435877277
C     2.8994425215     0.5952875363     2.0936873482
C     2.200243208     1.790785829     1.858000463
C     2.8538932234     -1.6350876615     1.3769969178
C     3.2261248775     -0.2544313823     0.9714692102
C     2.2081408544     -2.4453714904     0.4201811281
C     0.3164305702     -2.8273026568     1.9896880986
C     0.936213003     -3.0163999439     0.7096365738
C     -1.7000779879     -1.6531095543     2.83688039
C     -1.0886787594     -2.6285410823     1.9601150632
C     -2.7758724558     -1.0660862352     2.1421887412
C     -1.825460708     1.2079499449     2.4188191723
C     -2.8399134114     0.3122983532     1.8983433813
C     0.0355491992     2.6609443259     1.5827340991
C     -1.3633158992     2.3084467455     1.5391895215
C     2.0584557882     2.2599116532     0.5149555514
C     0.7577336247     2.9322768506     0.3944697558
C     3.0756332706     0.1765439772     -0.3604744218
C     2.5797913074     1.5438312288     -0.5816798802
C     2.2592855481     -2.0901359451     -0.9729444763
C     2.77843282     -0.8383132191     -1.4015707368
C     0.1796071522     -3.0357637286     -0.5511076787
C     1.0593020179     -2.6185407563     -1.5851158811
C     -1.84279587     -2.6082648534     0.6830177352
C     -2.9095326015     -1.7244734403     0.8399300646
C     -1.1979734007     -2.6962338927     -0.5967867791
C     -3.3648332949     0.4918890686     0.5369629832
C     -3.2897104362     -0.7831350006     -0.1524080256
C     -2.0307274203     2.5558461257     0.3205027248
C     -3.0785928794     1.6457943591     -0.1566015215
C     0.1102426264     3.0973954048     -0.8619695746
C     -1.3256445274     3.0254030147     -0.8611103947
C     2.0568712199     1.8984659397     -1.8835184055
C     0.8179387457     2.6990162915     -2.0295949356
C     2.3725944409     -0.3937052647     -2.7035238331
C     2.1639300427     1.0213756546     -2.9561111778
C     0.5511704529     -2.0371060407     -2.7529695004
C     1.3550337312     -1.0815734717     -3.4170099369
C     -1.7178687426     -1.8873580568     -1.7279182644
C     -2.7723825134     -0.8851728124     -1.4807936293
C     -0.8517779679     -1.6608141204     -2.8295157317
C     -2.9915010682     1.5691724617     -1.5754973552
C     -1.9795087161     2.4998214909     -2.0145406167
C     -2.7721842892     0.3380188784     -2.2395578961
C     0.122928125     2.19508384     -3.1847867962
C     0.9603155035     1.1813632323     -3.7773045837
C     0.4496260073     -0.083732328     -3.9917578002
C     -0.9123167327     -0.4318471371     -3.6295566993
C     -1.2696667819     1.9658694562     -3.1158089806
C     -1.7798915443     0.5893858554     -3.2861338775


