58

 C     1.3039081167     -0.1438778357     3.4935805072
C     2.4386859632     -0.3629937554     2.6726021397
C     2.389246767     -1.7668041628     2.2511493728
C     0.4440360528     -1.3034784592     3.4625052025
C     1.0834074915     -2.2915832424     2.6625643869
C     -0.8876874026     -0.8760634728     3.2466013009
C     0.5013364417     1.0304715131     3.440938646
C     -0.8981734075     0.5846608443     3.3941863672
C     0.9131655565     2.0563200734     2.5920189951
C     2.8129362904     0.6709490949     1.7326777018
C     2.0457547311     1.8802263382     1.7243384765
C     3.3978041327     0.2518497424     0.4859831162
C     2.9015621617     -2.125376629     1.013811581
C     3.5442727301     -1.1236810601     0.2138283235
C     2.1296961054     -2.9672339119     0.0906271735
C     0.2974746974     -2.9808509529     1.7432176798
C     0.8501795814     -3.3705215536     0.4469393703
C     -1.6971277159     -1.5061665643     2.2395707279
C     -1.0940663918     -2.6090596079     1.5478225278
C     -2.7057032941     -0.6959559859     1.5359963926
C     -1.8362013583     1.3381998317     2.7398259556
C     -2.8397725109     0.692088316     1.8848438843
C     -0.0900917973     2.8622603771     1.8921544788
C     -1.4442092142     2.5933724509     2.0837438893
C     1.7020256216     2.528140932     0.471464867
C     0.4151302606     3.1901418076     0.5868306045
C     3.044745226     0.8972638089     -0.7704779924
C     2.1864673205     2.0311737973     -0.795270718
C     3.2544809991     -1.3608186767     -1.1824138339
C     2.3657672998     -2.460965783     -1.273901512
C     2.9423379135     -0.1242506742     -1.798854253
C     1.3145170622     -2.4120093897     -2.2063392605
C     -0.2296651178     -3.3407691682     -0.5233839839
C     -1.4156907013     -2.8889244359     0.1707396514
C     0.0100442749     -2.8985566299     -1.8269505244
C     -3.0468246123     -1.0403661106     0.1855935188
C     -2.3764537822     -2.1171218666     -0.4994825078
C     -3.3687410874     -0.0356978429     -0.8143070122
C     -3.2207311575     1.6405099421     0.9059930144
C     -2.3139689184     2.7624464544     0.9697809274
C     -3.4022958483     1.3118835348     -0.4666278714
C     -0.4541490128     3.2954723518     -0.5464129624
C     -1.8715924279     3.0995514827     -0.3342134994
C     -2.6567575688     2.28676625     -1.2689048815
C     1.3688527807     2.2435432567     -1.9395668
C     0.0820749992     2.9154477813     -1.8270426326
C     1.9102202796     -0.049094887     -2.7948314362
C     1.1251086478     -1.2328879011     -3.0325879487
C     1.2656873402     1.2226418321     -2.9684732044
C     -0.9881437919     -2.096688269     -2.5232798731
C     -2.1893049111     -1.7665442562     -1.8904150252
C     -2.7798798796     -0.4544101761     -2.0853641584
C     -0.2924594766     -1.1210863165     -3.3273533845
C     -2.0855342402     1.8808729157     -2.4651490921
C     -0.7673538561     2.339949189     -2.7939284151
C     -0.0502763242     1.2939682234     -3.4877867089
C     -2.1635872915     0.4816615619     -2.9043354988
C     -0.8744837365     0.1420058737     -3.5342758


