58

 C     1.5808639985     0.1296953419     4.2485050263
C     0.7734981833     -1.0792837075     4.0855673572
C     1.5225932991     -1.9836335314     3.3531413394
C     2.7170499084     0.020616357     3.3153863144
C     2.7438985379     -1.280016011     2.8389855235
C     2.6952348927     1.1250871217     2.3628242979
C     0.8132094905     1.1702532323     3.7647247827
C     1.5647652059     1.9263055041     2.7734496351
C     -0.54186615     -0.7160374391     3.5571511589
C     -0.5294695066     0.7012888329     3.3685755908
C     -1.1996769817     -1.526598336     2.5871042891
C     0.9480130695     -2.7042900149     2.2823286298
C     -0.4581453439     -2.6684995378     2.0472517613
C     2.8075177509     -1.5442061079     1.4492544651
C     1.8335519047     -2.5691158094     1.1378245021
C     2.8999249628     0.9137635448     0.9608015971
C     3.020761081     -0.4732936979     0.4934821167
C     2.3387982857     1.9008419557     0.018697644
C     0.8485677236     2.6263311846     1.8443711193
C     1.3753186916     2.8087617767     0.5315144501
C     -1.2345792154     1.3309980186     2.3004678301
C     -0.6037964847     2.4619360941     1.6935470336
C     -2.209395034     -0.8900123679     1.7281077875
C     -2.1669660013     0.5529760829     1.49436845
C     -2.8081979039     -1.7210309899     0.7280580583
C     -0.870020747     -3.1980525383     0.7877788842
C     -2.1417029687     -2.9252257916     0.3057271965
C     1.357495189     -2.759075173     -0.1899785039
C     0.0431497737     -3.2449764624     -0.3584999791
C     2.6638420828     -0.7630060784     -0.8433815002
C     1.8975440089     -1.92720212     -1.2079403909
C     2.2393338439     1.6093443585     -1.4213744539
C     2.4238340346     0.2662654129     -1.8363028481
C     1.3999037134     2.4367040993     -2.2615692273
C     0.2750104278     3.2903413631     -0.2786483147
C     -0.9550968209     2.9178449332     0.4043361078
C     0.3604332099     3.273909662     -1.6416619962
C     -2.6305588186     1.1153312539     0.2156312165
C     -2.023869147     2.3181743458     -0.3429356536
C     -3.3919888414     -1.1398669304     -0.4297754882
C     -3.2467035321     0.2106073121     -0.7230354537
C     -2.0858197315     -2.9097740355     -1.162450661
C     -0.7135633066     -2.9570724916     -1.5584511775
C     -2.887146005     -1.8798416703     -1.6115294852
C     1.1337773773     -1.6034943809     -2.3824243221
C     1.5850096374     -0.3104174302     -2.8551339149
C     -0.2195875499     -2.0365794613     -2.5524510416
C     0.7926356237     1.9101189466     -3.4265112077
C     0.7385403276     0.4776551788     -3.6247250191
C     -0.8580268669     3.129872059     -2.3970288911
C     -2.0049818386     2.5464743486     -1.7714719561
C     -0.5389973472     2.4557905567     -3.6248498327
C     -2.950992091     0.3276795726     -2.1689350184
C     -2.4919362623     -0.9797894432     -2.625517897
C     -1.1689908797     -1.0856408333     -3.1969345416
C     -0.6515841175     0.101567041     -3.7958381707
C     -2.4101941748     1.4736092855     -2.6740343007
C     -1.4002225777     1.345887604     -3.7155728878


