58

 C     1.5914326321     -0.3107733423     4.4330024501
C     0.76044642     -1.475651457     4.4392749234
C     1.2290866282     -2.3242877762     3.4230942935
C     2.5695890511     -0.4664662613     3.3616828014
C     2.3874064     -1.7084930323     2.7277761628
C     2.6102087784     0.7285023221     2.5194280983
C     0.7972136863     0.7481851452     3.9481694426
C     1.4842315143     1.5261247447     2.9264345346
C     -0.5716910108     -1.071814004     3.9524163971
C     -0.5716555828     0.3286714748     3.6828963394
C     0.1302256396     -2.7984506065     2.6100914693
C     -1.0432575805     -1.946839156     2.9299612359
C     0.3851823194     -3.102311177     1.3019930979
C     2.5287528602     -1.8332471747     1.2961666444
C     1.6548171543     -2.7505863227     0.6449510465
C     2.9427227711     0.6458607555     1.1533232868
C     2.9870704153     -0.6777999171     0.5068685086
C     2.5204966236     1.7670497781     0.3673744171
C     0.7425051521     2.2612705303     1.9972820463
C     1.4461310776     2.6029296068     0.8039661071
C     -1.2764176454     0.8621388241     2.5697803637
C     -0.7166336077     2.0416022219     1.8907244416
C     -1.8495399416     -1.4591192815     1.8897501932
C     -2.1204479347     -0.0200309363     1.7881957819
C     -0.6636985767     -2.9873188366     0.3154669533
C     -1.8316774617     -2.2235126752     0.6253697053
C     1.3573458299     -2.6510922121     -0.7423124534
C     -0.0705334501     -2.8761744896     -0.9738726644
C     2.8041823394     -0.7048166231     -0.8951527632
C     2.00350995     -1.7135887063     -1.5391530396
C     2.487519761     1.7322757592     -1.0774601386
C     2.6482878935     0.5023501632     -1.7045593888
C     0.7641819939     3.1148437481     -0.3546868358
C     1.4665714875     2.6609857648     -1.5414310466
C     -1.3470844509     2.5004435921     0.7375041786
C     -0.6263685434     3.1611761437     -0.3570887517
C     -2.7689714443     0.494562375     0.5979784892
C     -2.4743630607     1.8138707395     0.149781282
C     -2.5534467539     -1.7534258757     -0.4649230127
C     -3.214653313     -0.4339102099     -0.4147976744
C     -0.7599341291     -2.3133191972     -2.0795255019
C     -2.1292994128     -1.9809636197     -1.8206832914
C     1.3433390022     -1.1551719612     -2.706720735
C     1.8347442885     0.1901605566     -2.8604471759
C     -0.0049925165     -1.4966203803     -3.060724429
C     0.7644804888     2.4306485711     -2.7119732075
C     1.0132831647     1.1762483274     -3.4463142735
C     -1.3634520716     2.9625030493     -1.5774058358
C     -2.5661026294     2.1945994281     -1.2513452585
C     -0.6639649972     2.7137815565     -2.7827511739
C     -3.4446327252     -0.018287078     -1.7201593588
C     -2.7939382883     -0.9995644081     -2.6216034633
C     -3.1035915129     1.2971942846     -2.1912636191
C     -0.72757889     -0.5319156229     -3.854384565
C     -0.1894843134     0.7700173095     -4.0449638834
C     -1.232292632     1.7712211126     -3.7051683479
C     -2.1542640616     -0.3333655185     -3.6316350402
C     -2.4209968346     1.1196999848     -3.4581977725


