58

 C     1.4915432178     -0.1062880298     4.0704079677
C     0.6664292225     -1.2611668585     3.9645093997
C     1.2624300656     -2.1668877273     3.01367955
C     2.450092536     -0.1711820187     3.0473294516
C     2.3097133422     -1.4207428346     2.3212462948
C     2.4760101736     1.0805009895     2.3190006792
C     0.675938205     1.0523245896     3.7279831401
C     1.3693361332     1.8870667614     2.8072814033
C     -0.6794422262     -0.819112833     3.6927546899
C     -0.6449873546     0.6334533133     3.4334530608
C     -1.5148125673     -1.6179799655     2.9254254425
C     0.4179767362     -2.9924522981     2.273018976
C     -1.0044088022     -2.8454189696     2.428493641
C     0.6750952592     -3.2230576705     0.8666862559
C     2.3999926619     -1.431596641     0.9020876503
C     1.6209362452     -2.4425740719     0.149224437
C     2.7879482675     1.0918437017     0.9511958015
C     2.7943979644     -0.1845347097     0.2140146445
C     2.4276539931     2.2998324681     0.2736093631
C     0.642161961     2.6991625508     1.9238200994
C     1.4090708933     3.1553291236     0.8029925678
C     -1.3434867049     1.2065225022     2.3149345247
C     -0.7812685308     2.4024789267     1.7183068962
C     -2.3244468099     -1.0295361877     1.8386582811
C     -2.235776216     0.3402171002     1.5015815089
C     -1.6272658624     -3.1058754376     1.1652408897
C     -0.6247674499     -3.5214110851     0.2429012469
C     -2.4858354607     -2.0310922462     0.8059596872
C     -0.8465393361     -3.2770494788     -1.0820035733
C     1.4217541431     -2.288398548     -1.3059843716
C     0.2580612136     -2.8729757194     -1.9416998258
C     2.5948367382     -0.0951150346     -1.175173826
C     1.9571237387     -1.1474444042     -1.9436996632
C     2.3107914787     2.3687666722     -1.1802696241
C     2.3632398396     1.1622406124     -1.8681163594
C     0.7651101614     3.7836729989     -0.3044176428
C     1.3425234304     3.3539440328     -1.5427951228
C     -1.3630438736     2.8626861393     0.4995649211
C     -0.6408581397     3.6994044271     -0.4109974038
C     -2.6041539945     0.7226103546     0.1278906423
C     -2.2556277179     2.0274856857     -0.2801727219
C     -2.6791551783     -1.6967257788     -0.5741275603
C     -2.0588949207     -2.5831406866     -1.524888069
C     -2.8660031358     -0.2940879951     -0.914849902
C     -0.3166101005     -2.2928244953     -3.0803339064
C     -1.7706310322     -2.1304579591     -2.8269976263
C     1.3204094095     -0.5258765266     -3.0928578713
C     1.4463139987     0.9064605126     -2.9688527642
C     0.1653181081     -1.0887409514     -3.6714473322
C     0.2540110106     2.9853905248     -2.4163905973
C     -0.9752217308     3.3348478332     -1.7634475937
C     -2.0077296255     2.3557723998     -1.6862422625
C     0.3287673634     1.7725825564     -3.1987382073
C     -2.6517246572     0.0852334369     -2.2843880766
C     -2.1152494583     -0.8583937816     -3.231465875
C     -0.9671362811     -0.2242436084     -3.8994892826
C     -2.092259319     1.3594060977     -2.6336583753
C     -0.9276510256     1.1171482811     -3.5197476777


