58

 C     1.6477601702     -0.0015137414     3.9027544108
C     0.8205555748     -1.1639008722     3.7489057552
C     1.3932975751     -2.0226880956     2.7902690275
C     2.6653685398     -0.0529242667     2.8830886735
C     2.5219499854     -1.2637351873     2.1821732492
C     2.6006665394     1.1723925695     2.1008689759
C     0.8372908034     1.0980585608     3.5636420677
C     1.4857724604     1.9376805411     2.5982048421
C     -0.5558618399     -0.7438898299     3.5287941155
C     -0.5449025216     0.699589521     3.3368457673
C     -1.3659264173     -1.5188478451     2.7219729512
C     0.5732163628     -2.8700749151     1.9822506095
C     -0.8513578282     -2.7076129548     2.0558348908
C     1.1196672595     -3.2723328678     0.7205507809
C     2.7513351802     -1.3448480082     0.7573061573
C     2.1908130999     -2.4538148844     0.0973009737
C     2.8901938247     1.191300583     0.706861105
C     3.0027255033     -0.0987564267     -0.0097466492
C     2.4187573274     2.3319527743     0.0180035661
C     0.717726396     2.7610137515     1.7537653511
C     1.4207414109     3.2104878873     0.5924692494
C     -1.2981036544     1.3239915184     2.3188018354
C     -0.739925978     2.5280104296     1.6648035458
C     -2.3207622603     -0.884166582     1.8449304403
C     -2.299807117     0.5099534653     1.5967989485
C     -1.6829343268     -2.9503082163     0.9046206238
C     -2.6312068271     -1.8464528688     0.7954485181
C     0.2752036026     -3.7012713621     -0.3074143194
C     -1.1362014129     -3.4865802197     -0.2706441943
C     1.9265767106     -2.4273381738     -1.3291100024
C     0.7618398182     -3.1904516754     -1.5850361266
C     2.7214963548     -0.1019901005     -1.3931996939
C     2.107388181     -1.2353345402     -2.0306209194
C     2.1819543017     2.3179862523     -1.4357708668
C     2.2314514885     1.076957445     -2.0868271736
C     0.6992586742     3.7810625601     -0.4839726291
C     1.1749432496     3.2374697802     -1.7626191467
C     -1.39454959     3.0128015998     0.5121640449
C     -0.6846641941     3.7565017112     -0.4901864001
C     -2.8309827256     0.970182504     0.3086901069
C     -2.3990198919     2.2114246706     -0.1920754218
C     -3.1061956983     -1.435827102     -0.4296901387
C     -3.2751397822     -0.008774651     -0.6743569746
C     -1.5302045443     -2.9533245231     -1.5759954367
C     -0.3081659928     -2.6926466558     -2.3525214499
C     -2.5649568122     -2.0352625137     -1.6503859961
C     1.0999561448     -0.7680614845     -2.9570254415
C     1.1837694617     0.6887425609     -2.9883298442
C     -0.1414963345     -1.4480368543     -3.0853488962
C     0.0409239659     2.8378137573     -2.540390762
C     -1.1138907148     3.2785918022     -1.8086538139
C     -2.2036977677     2.4232464677     -1.6359896579
C     0.0242298065     1.5221047123     -3.1676894419
C     -3.0896446502     0.2215001692     -2.0569100601
C     -2.5015677904     -0.9825941967     -2.6201705498
C     -1.3125998006     -0.6221888308     -3.2769519199
C     -2.3744078873     1.3394487918     -2.5261996776
C     -1.2286554232     0.8452840596     -3.2642869392


