58

 C     1.491261324     -0.3116710745     4.5158032658
C     0.6226362261     -1.4277850605     4.5168639228
C     1.1093608958     -2.3440968774     3.5463774374
C     2.5446483981     -0.5601894084     3.5476769514
C     2.3404374566     -1.8297410036     2.9275006842
C     2.7148477024     0.6079928966     2.7158670376
C     0.7737733854     0.7930535234     3.9613548747
C     1.5464176118     1.4736339267     2.9437691568
C     -0.6666961556     -0.9820749988     3.9810893902
C     -0.5969320531     0.4174390106     3.6766739123
C     0.0345976301     -2.7572418727     2.6829028832
C     -1.1298601776     -1.8625569418     2.9692841641
C     0.3094386246     -3.0522786346     1.3661657849
C     2.5416676666     -1.9787620612     1.5034965154
C     1.5920764311     -2.7505975706     0.7451101025
C     3.1202119052     0.4353973406     1.4143107282
C     3.1133282631     -0.8867765911     0.7839855284
C     2.7253180474     1.3959748888     0.4149001772
C     0.9018978556     2.1043688728     1.8737351131
C     1.6364977873     2.2704963376     0.6046166433
C     -1.2380445348     0.9319649999     2.5273510481
C     -0.5658986312     1.9990898182     1.7751268834
C     -1.9088192528     -1.3710430375     1.9131921313
C     -2.1311321849     0.0684371961     1.7794230052
C     -0.7211517681     -2.8964150499     0.3611850292
C     -1.8971255716     -2.1478134995     0.6570052556
C     1.3206848224     -2.5020227078     -0.6343505048
C     -0.0982587551     -2.7371151384     -0.9058947506
C     2.8753480517     -0.6844807869     -0.6152375186
C     2.8874908836     0.7425176079     -0.8664328505
C     1.9734843133     -1.4886132283     -1.3883908637
C     2.3297342436     1.2584461755     -1.9884499603
C     0.9660990365     2.7903605331     -0.5854665736
C     1.5044500604     2.4672137066     -1.8875070817
C     -1.1712120682     2.4482717288     0.60824275
C     -0.4335824809     3.0178222695     -0.5263521628
C     -2.7566442435     0.5779781674     0.5812923199
C     -2.3832818076     1.86430782     0.0928239337
C     -2.6137986977     -1.6831782454     -0.4353973303
C     -3.2537172763     -0.3537075176     -0.4019030272
C     -0.7773398053     -2.1829362165     -2.0166693432
C     -2.1680667101     -1.9079223486     -1.7838150815
C     1.3280287722     -0.9312369045     -2.5942956934
C     1.7405155051     0.3813731037     -2.9891901868
C     -0.0293603301     -1.3659177738     -2.9969175715
C     0.6904411258     2.4974584096     -3.0217932439
C     0.8949928976     1.2184641241     -3.765022664
C     -1.2787112235     2.955207045     -1.6835363013
C     -2.505469949     2.2357108342     -1.3031278338
C     -0.7067198042     2.7573146587     -2.9697013281
C     -3.4831197962     0.0493890536     -1.7122105619
C     -2.8521715564     -0.956150653     -2.5984948445
C     -3.1154285532     1.3495584074     -2.2058278336
C     -0.7964984304     -0.5293567971     -3.8800106533
C     -0.3127087671     0.7747138613     -4.2354705114
C     -1.3403018947     1.7971460844     -3.8611756206
C     -2.2179627781     -0.3311693911     -3.6336553358
C     -2.4796716758     1.1317489994     -3.5008294275


