58

 C     1.1499055738     -0.0759350478     4.0255809949
C     2.233596375     -0.3850467142     3.2500498238
C     2.1094153578     -1.7699476655     2.748331287
C     0.2627593073     -1.2682065073     3.999529543
C     0.8224696958     -2.2579244186     3.070921277
C     -1.0046362378     -0.8056883246     3.7901566485
C     0.3595818838     1.1056064076     3.6951783824
C     -0.9923128122     0.6717105668     3.7245530034
C     0.792394166     2.0124167369     2.6624463844
C     2.6906061039     0.4517572818     2.1704673297
C     2.037884638     1.7064590435     1.9168800004
C     2.6060269982     -1.7761542486     1.4300773061
C     3.0257930669     -0.4100657818     1.0744958372
C     1.9446631888     -2.5504855806     0.4860573622
C     0.0048241539     -2.8402828649     2.0384891012
C     0.6705619078     -3.1304833768     0.8004411737
C     -1.8533974362     -1.3067213347     2.7340305479
C     -1.4073001759     -2.400026906     1.9184528441
C     -1.9027961313     1.0347342394     2.7237501948
C     -2.4934507021     -0.1671058069     2.1288699062
C     -0.2455111431     2.6364929774     1.8972488188
C     -1.5850030086     2.1001443195     1.8831984752
C     -0.0126924056     3.2083879938     0.5906686587
C     2.2045931564     2.2152996917     0.6064303142
C     1.2305671751     3.0937364002     -0.0210268826
C     2.9816693134     0.0256534716     -0.271874875
C     2.7592988947     1.4186200549     -0.4614243088
C     1.9494650322     -2.162956364     -0.9202350987
C     2.5328241452     -0.9145241251     -1.323217728
C     -0.0348060135     -3.2558431864     -0.4593086222
C     0.7892097722     -2.6983418929     -1.5412960836
C     -2.0581484398     -2.5084619588     0.6689397446
C     -1.4084884057     -3.0938465824     -0.5052205651
C     -2.9208431811     -0.1683626648     0.776940425
C     -2.8952199969     -1.4448801431     0.1527377768
C     -2.0989507063     2.1492047892     0.532970937
C     -1.2097736847     3.0151485143     -0.2179087612
C     -2.7608094304     1.0442726331     -0.0619515134
C     -1.1291982885     2.9348834015     -1.5877437022
C     1.325672478     2.9759156833     -1.4629151861
C     2.2875112685     1.9309572845     -1.7313199641
C     0.1549946869     3.0546670356     -2.2527771409
C     2.0957478368     -0.3853893366     -2.5563157482
C     2.0841781989     1.0409616355     -2.8021998597
C     0.2129797485     -2.0706683056     -2.6930181154
C     0.9711769321     -0.9946545604     -3.2891323562
C     -1.9971385327     -2.5363901115     -1.6853408573
C     -2.8896577303     -1.5292731191     -1.2687029399
C     -1.2164672976     -1.9982773358     -2.7693545267
C     -2.6754071209     0.9166458029     -1.5298755609
C     -1.9406710663     1.9246104943     -2.2886743293
C     -2.7440935788     -0.374123182     -2.1180353803
C     -1.8447465194     -0.7610834453     -3.1941046015
C     0.0597945346     2.2561011487     -3.4322510405
C     1.0080596592     1.2938688093     -3.7201191436
C     0.3223519996     0.0192484569     -4.0112671886
C     -1.2707538295     1.5865232603     -3.4684518541
C     -1.0883033538     0.2171227774     -3.8528302043


