58

 C     1.2912408469     0.0995677035     4.279788825
C     2.4831972562     -0.2188225239     3.6677238432
C     2.301282992     -1.5253726676     2.9397510338
C     0.3995656645     -1.0910957056     4.1299810839
C     0.9665619388     -1.9262505208     3.0689255965
C     -0.8780771835     -0.655471971     4.0648600663
C     0.537067386     1.2610664972     3.9091130107
C     -0.8321072996     0.8478736656     4.05889954
C     0.9162726265     2.0104205136     2.7041859646
C     3.0328706865     0.672256113     2.7515159952
C     2.2352733295     1.7574031149     2.2047379023
C     2.9209041574     -1.4175829906     1.6761511015
C     3.5105283699     -0.1032401202     1.6255265202
C     2.2465689473     -1.9314350842     0.5131940179
C     0.1598898517     -2.2474836728     1.8782367564
C     0.8375291176     -2.3613256433     0.5977488922
C     -1.7586879747     -1.0791817191     2.9990154986
C     -1.2589963858     -1.8823246772     1.8964336335
C     -1.7931529507     1.2641934552     3.1968364793
C     -2.5270268914     0.0761866395     2.7015507449
C     -0.1220242799     2.3804510081     1.6990989023
C     -1.503462128     2.0726918763     2.034919541
C     0.1898179754     2.5013459481     0.2817656129
C     2.4973969328     1.801853255     0.7836646413
C     3.3852126623     0.6663706683     0.4654900865
C     1.5476938186     2.2033580986     -0.1761066387
C     2.6752524454     -1.3661362367     -0.7057652033
C     3.1993759436     -0.0137098126     -0.7152492113
C     1.9635418048     -1.546288855     -1.9297816237
C     0.0614097367     -2.450739456     -0.6482078023
C     0.7178944651     -2.2067397631     -1.9484097418
C     -1.9644053849     -1.7772629022     0.6335930672
C     -1.3780243185     -2.293094606     -0.5907716606
C     -2.9408745766     0.3395817641     1.4164955713
C     -2.3975527044     1.6569155296     1.0151160941
C     -2.9293011727     -0.6972545435     0.4682326367
C     -0.8818661136     2.443833423     -0.7445252228
C     -2.1862608525     1.9159943738     -0.3455277054
C     -0.5810390834     2.3517555089     -2.1211434907
C     1.7786800958     1.7947332819     -1.5760702895
C     2.6084104124     0.6592960736     -1.8239685039
C     2.1599514352     -0.3487080744     -2.7467503624
C     0.7727921227     2.0458892605     -2.5604596249
C     1.2934762098     -0.0208775125     -3.7705387445
C     0.6999226711     1.2965048795     -3.75782654
C     -0.0684907309     -2.003533302     -3.1588699738
C     0.29305738     -0.9775181562     -4.119298619
C     -2.1215315905     -2.1028471428     -1.8325457173
C     -1.4757808894     -2.0952701849     -3.0958549563
C     -3.2868317142     -0.2568353685     -0.8239766534
C     -2.937117004     1.114763646     -1.2503800153
C     -3.1659932644     -1.1075464707     -1.902503919
C     -1.5004553794     1.7548685636     -3.1114642844
C     -0.6992633689     1.1287335389     -4.1228240428
C     -0.9090929326     -0.2413346794     -4.4443855404
C     -2.0122376122     -0.9557190187     -3.8937362641
C     -2.6534633694     1.0731762246     -2.6464384328
C     -2.9195221166     -0.2900812233     -3.0991718748


