58

 C     1.3635722567     -0.5475386321     4.7389196881
C     0.5774771666     -1.6013610883     4.3540706308
C     1.1552875567     -2.2679025009     3.2022106097
C     2.4852718629     -0.4669455374     3.7612630902
C     2.3303576561     -1.5281231733     2.771886713
C     2.4866859432     0.8304107801     3.2851755685
C     0.5475527642     0.6602499065     4.5882625885
C     1.2981658323     1.5601011892     3.8438368622
C     -0.7789914309     -1.1608854327     3.9791381988
C     -0.7934972559     0.2746148226     4.0746214221
C     0.1138456499     -2.5270901263     2.2972585253
C     -1.0895593902     -1.7705848509     2.7452089126
C     0.383111265     -2.5595774535     0.9352927791
C     2.4441648847     -1.248393004     1.3833311776
C     1.6491372952     -2.0539958132     0.4676462058
C     2.5469000187     1.1422241231     1.8934168456
C     2.663209878     0.1283008109     0.9121439219
C     0.7223577056     2.2815393942     2.7794267151
C     1.5954090972     2.2110995441     1.6257244041
C     -1.4038380442     1.0191335803     3.0402245083
C     -0.6967051881     2.2083851192     2.5299340924
C     -1.8739914983     -1.1035062078     1.7638367674
C     -2.1877970708     0.2868337186     2.0166426429
C     -0.7535486879     -2.4824292737     0.0224435551
C     -1.860509929     -1.6218873407     0.3894459784
C     -0.4647635311     -2.7265510514     -1.3073215483
C     1.8013945752     -1.8739990291     -0.9344803818
C     0.9226059739     -2.6284501745     -1.7792405032
C     2.3389650006     0.47634009     -0.4638468581
C     2.3099528696     -0.5971025502     -1.4398687681
C     1.1297289059     2.4773070746     0.3257278357
C     1.6592474366     1.7055633344     -0.7898901646
C     -1.0977611167     2.7664552777     1.3133715477
C     -0.1832086673     3.0150565684     0.2284580006
C     -2.7256004682     1.0047339555     0.9265601906
C     -2.3384932913     2.3584443109     0.6939184408
C     -2.5320021898     -0.9249251669     -0.6929182995
C     -2.9659636746     0.3963438455     -0.3765275355
C     -1.3261334286     -2.3113549441     -2.3975125391
C     -2.2745502101     -1.2699697008     -2.1063448962
C     0.8793602473     -2.3961382215     -3.1519232601
C     -0.5266759319     -2.3008040718     -3.5792321961
C     2.0897683489     -0.2772709749     -2.7884211999
C     1.5738693784     -1.285671854     -3.724646692
C     1.0488737108     1.862623191     -2.1054845447
C     1.4786544557     0.9885960005     -3.1405133874
C     -0.9238780738     2.9114941656     -1.0042166596
C     -2.2981089463     2.6080064208     -0.692529822
C     -2.8373925571     1.4509431511     -1.3601697546
C     -0.3090036146     2.4305599895     -2.1925431062
C     -2.3389122578     -0.2154570493     -3.0988319079
C     -2.3788626447     1.1503398476     -2.6201033856
C     -1.2072149567     1.8623212045     -3.1739769377
C     -0.6017007571     -1.2510032927     -4.5299140788
C     0.7487846221     -0.6578648238     -4.6751758926
C     0.6404790164     0.7265170641     -4.3028667704
C     -1.493931102     -0.2134054387     -4.2465890111
C     -0.721595489     1.0756502879     -4.214308308


