58

 C     1.5515126281     0.0508839653     4.3537527326
C     0.7459726787     -1.1435399315     4.2062461214
C     1.464162222     -2.1045491306     3.4719574088
C     2.7062328537     -0.1130123485     3.4725172343
C     2.672829285     -1.4177251407     2.9570852303
C     2.7432281284     0.9589390041     2.5126007461
C     0.7916922094     1.0642708438     3.7519164481
C     1.5485442426     1.7464255484     2.7357178325
C     -0.5853859279     -0.7783652741     3.7453847791
C     -0.5572594205     0.6396404233     3.4014432643
C     -1.2408334022     -1.6307265075     2.8697707982
C     0.8695685356     -2.7850163184     2.3749925775
C     -0.5167092331     -2.7078415245     2.182834367
C     2.7769959916     -1.6894181583     1.5586632638
C     1.7043325093     -2.5924651322     1.1925978903
C     3.1685355674     0.7296849917     1.1603253965
C     3.169665669     -0.6551448948     0.6485055459
C     2.831451986     1.7546752295     0.2582169507
C     0.887346496     2.3983122624     1.6808206287
C     1.7509221736     2.6874721502     0.5801653249
C     -1.2122737813     1.1548358192     2.2509859266
C     -0.5454953176     2.1825868412     1.4269571452
C     -2.1801008013     -1.0789428843     1.9373641594
C     -2.2094832387     0.3062370126     1.5973544345
C     -1.0710318043     -2.8222645832     0.867486318
C     -2.2786143321     -2.0346966544     0.8630813509
C     1.1510035151     -2.6013321093     -0.1258822483
C     -0.2856648286     -2.8236306056     -0.3286654578
C     2.8249188981     -0.853854454     -0.7097288246
C     1.8437942529     -1.8360603525     -1.0983052791
C     2.7934747406     1.5495397274     -1.1805788442
C     2.7251513343     0.236664848     -1.6503913814
C     1.1985642173     3.1464698629     -0.6044546857
C     1.8874898339     2.5134664799     -1.7420016002
C     -1.0814405376     2.5214694792     0.1294968911
C     -0.1876490565     3.1122162808     -0.8390342469
C     -2.8060717303     0.6923638487     0.3196656896
C     -2.3058234442     1.8584149825     -0.3982574128
C     -2.877718564     -1.694290614     -0.3001866293
C     -3.4191462931     -0.3485594337     -0.4657499574
C     -0.9230600277     -2.4402134142     -1.5897649412
C     -2.3268631027     -2.1362892645     -1.5605045715
C     1.1971393094     -1.3948312476     -2.3141348461
C     1.7480629036     -0.110618192     -2.6682609826
C     -0.1403200548     -1.7574368197     -2.6391149841
C     0.9611404129     2.2139401906     -2.7181363942
C     -0.3276642063     2.7943564569     -2.2517510558
C     0.9218225351     0.8680341495     -3.2924916638
C     -2.596160126     1.9721369681     -1.8016903505
C     -1.5017422541     2.322617257     -2.7302716076
C     -3.6660435128     -0.2019421148     -1.837828842
C     -2.9476821922     -1.3286618616     -2.5471083271
C     -3.348893125     0.9725531076     -2.5032877962
C     -0.8085340064     -0.9036701606     -3.5954467647
C     -0.3072807218     0.4229774303     -3.8314949633
C     -1.4767708508     1.3257948244     -3.8021123458
C     -2.264430618     -0.8069889949     -3.6284868804
C     -2.6394086278     0.595108137     -3.752782572


