58

 C     1.2876583015     -0.1925473483     3.6709279204
C     2.4615425479     -0.4904085622     3.0156234471
C     2.3456989875     -1.8575110737     2.4503586052
C     0.4163779736     -1.3706980846     3.6426149528
C     1.0621525208     -2.3629084039     2.801580601
C     -0.8665115232     -0.9408363294     3.3228016782
C     0.5254117904     0.9634871807     3.2673195356
C     -0.829187921     0.5337023453     3.1446139665
C     1.0937933866     1.9228492976     2.3484696148
C     3.0339878858     0.3863164707     2.0508771983
C     2.4361540641     1.6668615481     1.7791036264
C     2.7590127659     -1.7727414333     1.1161046385
C     3.4090398314     -0.4659797987     0.9429277982
C     1.9473755357     -2.2970529979     0.0327872354
C     0.3111589283     -2.9864709434     1.8005654761
C     0.771510528     -2.9804636873     0.4298584132
C     -1.7284859432     -1.7355993697     2.481341881
C     -1.1277751241     -2.8072218111     1.7562850228
C     -2.8435273107     -1.0606030056     1.8618541904
C     -1.7261717912     1.1610429827     2.2407472615
C     -2.799719833     0.4143285516     1.6884578452
C     0.1658712986     2.6402487547     1.5443533636
C     -1.221668164     2.2537193111     1.4684555782
C     0.5264262051     3.2079985831     0.2603617095
C     2.7551937042     2.2387611434     0.5061323777
C     1.8009299206     3.0568601571     -0.2489791792
C     3.5491709261     0.0543830322     -0.3162002106
C     3.4480249244     1.4654417598     -0.4628856605
C     1.9777216927     -1.6388274989     -1.2901350838
C     2.8927806749     -0.5729074087     -1.4793407295
C     0.7838756757     -1.7111502843     -2.1723471399
C     -0.4010807339     -3.0514986143     -0.4366468525
C     -1.5740555068     -3.1006763282     0.4074559294
C     -0.4174711253     -2.4403143064     -1.7147543543
C     -3.487643507     -1.6072018308     0.7576750113
C     -2.7956304486     -2.596610858     -0.0491902903
C     -3.3439035443     0.7290858687     0.4080266697
C     -3.859893382     -0.5043834792     -0.1329383182
C     -1.7274015817     2.5255551628     0.1452887828
C     -0.6520466381     3.1366073214     -0.610489746
C     -2.7077690102     1.6925525241     -0.4607562109
C     -0.5247826058     2.9159695413     -1.9676020077
C     1.9521556166     2.7711971674     -1.6819374659
C     2.9297940114     1.7459370451     -1.778965852
C     2.6258933089     0.4979971072     -2.4112821709
C     0.820174579     2.702622179     -2.518432986
C     0.6151207114     -0.7108870156     -3.1624545364
C     1.4976969695     0.4296515691     -3.2449807293
C     0.7088207163     1.6113914978     -3.4201899743
C     -2.5347792604     1.3657247639     -1.8942475514
C     -1.4581965936     1.9835160838     -2.6074203552
C     -0.7338732616     -0.2050816849     -3.4812247292
C     -0.6749145772     1.2156760024     -3.5095980847
C     -1.7273948661     -2.0445257726     -2.1991984373
C     -2.8731142662     -2.1736642587     -1.4061676543
C     -3.5527241731     -0.8547499503     -1.428716005
C     -1.8532629324     -0.7847676226     -2.9457358543
C     -2.8675403283     0.0288048209     -2.3101521915


