58

 C     1.3966662425     -0.2430554593     4.7794569036
C     0.5763985552     -1.3603333653     4.4441276079
C     1.1334613493     -2.0919507375     3.3592802869
C     2.4734636938     -0.2546409479     3.798739217
C     2.3282372356     -1.4146339374     2.9113203287
C     2.5836080559     1.0095675264     3.1872427664
C     0.6197804658     0.9154375369     4.4234648625
C     1.3864497246     1.7797709987     3.5966803332
C     -0.706005569     -0.9248742369     3.9573646695
C     -0.6983439326     0.4973819238     3.9103103731
C     0.0948027167     -2.4554565946     2.400401581
C     -1.0792827447     -1.6950792769     2.7690480767
C     0.4068570233     -2.6174706239     1.0621766628
C     2.5293339811     -1.3095248489     1.5195936549
C     1.76474043     -2.2274162955     0.6527537667
C     2.6914842546     1.1199338814     1.784277341
C     2.8539698227     -0.0121195137     0.9270765794
C     0.8301368606     2.3320188406     2.4370817425
C     1.7492266004     2.1188172966     1.3137374643
C     -1.2797571915     1.1251751306     2.7740727502
C     -0.5630846261     2.1928113623     2.1046676677
C     -1.8556451746     -1.1269373534     1.7709315407
C     -2.1461797077     0.3097982784     1.9051250055
C     -0.6595083507     -2.4877198605     0.0631779472
C     -1.8018310582     -1.7033023681     0.4178861328
C     -0.3329742595     -2.7218041422     -1.3401350765
C     2.000687747     -2.161111139     -0.6916328327
C     1.0690968192     -2.6813892125     -1.6903207887
C     2.6669893577     0.1987756104     -0.4815144009
C     2.6558115906     -0.9874270469     -1.2887606969
C     1.3557315626     2.2293493916     -0.0185670267
C     1.9819352609     1.3622038138     -1.0092639829
C     -0.961366754     2.6200894684     0.7930145829
C     0.0330551544     2.7881152401     -0.2767700766
C     -2.7216812078     0.9426663997     0.8291583579
C     -2.2773904869     2.2546060125     0.3927777144
C     -2.6109422288     -1.1013498831     -0.6379703762
C     -3.1682914039     0.2225128634     -0.3765406479
C     -1.2759750642     -2.3337896753     -2.34432964
C     -2.3849346966     -1.456439089     -1.9798954432
C     -0.8250540546     -1.9273258759     -3.6441056104
C     1.4719329313     -2.1323828772     -2.9266318015
C     2.3354944448     -0.9700041361     -2.6286947475
C     0.5382830774     -1.7294032995     -3.8808282438
C     1.4630753409     1.3439786577     -2.3804730841
C     1.7255545924     0.1833347383     -3.2355367316
C     0.7466649521     -0.2802122974     -4.1593689338
C     -0.401093012     2.8383307016     -1.6150861466
C     0.2992820172     2.1012494702     -2.6684633698
C     -2.7057748923     2.4104592126     -0.9373938109
C     -3.3367250039     1.1519561737     -1.4015549471
C     -1.7967479971     2.7726842137     -1.9196121378
C     -2.5533576348     -0.4630856825     -3.0612740871
C     -1.5190743131     -0.6876594066     -3.9844968672
C     -0.5221255319     0.3363403173     -4.2426358539
C     -0.7069222483     1.6065293627     -3.6249905555
C     -2.8952113763     0.8759881856     -2.7378809612
C     -1.9769313295     1.9180166038     -3.1002170282


