58

 C     1.3155007595     0.1128129638     4.1530894914
C     2.4710033911     -0.1126154642     3.3687168127
C     2.3696912606     -1.4375225203     2.8496899763
C     0.4314649318     -1.080798125     4.0507138213
C     1.0466999553     -1.9786496141     3.1696027103
C     -0.9194809665     -0.6272983301     3.803859782
C     0.5290458183     1.2255895498     3.9075435349
C     -0.8919169514     0.8034021707     3.8005296398
C     0.8112929381     2.1494473979     2.8586110179
C     2.7955241865     0.7654002652     2.265102828
C     1.9830229591     1.9396052878     2.0274790942
C     2.851052644     -1.4381141602     1.5192715406
C     3.1869074169     -0.0588062154     1.1396989088
C     2.2203939556     -2.2434527667     0.5808617135
C     0.2748171084     -2.6298971404     2.1049621518
C     0.95783703     -2.9102368249     0.8750739444
C     -1.7008430444     -1.2788065005     2.8345342345
C     -1.1203586628     -2.3478518405     2.029994487
C     -2.5447397841     -0.5170198946     1.9582825706
C     -1.4860764762     1.537002934     2.7785381094
C     -0.4498868876     2.4287158163     2.2164942285
C     -2.4289454377     0.9110156599     1.8821272672
C     -0.5429342959     2.8574747037     0.8697506557
C     1.8947544635     2.3716871925     0.6831423388
C     0.67413081     2.9614953916     0.1284548273
C     3.0449529799     0.3640192437     -0.1990538223
C     2.5450987209     1.6887646357     -0.3885673192
C     2.2663429713     -1.9149880561     -0.8227717702
C     2.7320115707     -0.635639198     -1.2553672016
C     0.2690948173     -3.0058442989     -0.3659239469
C     1.1293852988     -2.5138760468     -1.4445067871
C     -1.8035872714     -2.3643930092     0.7608905985
C     -2.7291027502     -1.2696833379     0.7312778923
C     -1.1392364334     -2.7783834289     -0.4462438255
C     -3.0996618487     -0.6510735318     -0.4902329901
C     -2.6266167237     1.5214965618     0.6170898511
C     -1.7324332269     2.5306480677     0.1293458019
C     -3.1111664943     0.7829473392     -0.5343389692
C     -1.7344679229     2.4820791745     -1.3112569153
C     -2.7179946575     1.4865702066     -1.7220379343
C     0.6832344879     2.8330772749     -1.2882334214
C     1.8705353599     2.051105913     -1.6108028467
C     -0.5215928092     2.6414999087     -2.0428330251
C     2.261202835     -0.1973514728     -2.5113270392
C     1.909056707     1.2143047315     -2.7176865264
C     0.6096782964     -2.0615081369     -2.6802235577
C     1.313485012     -0.9585960358     -3.2995958336
C     -1.6561834697     -2.3296934716     -1.6862658714
C     -2.7516951312     -1.3377525711     -1.7116278449
C     -0.8290470009     -2.1486123409     -2.8541412383
C     -2.5483574748     0.7903486127     -2.9307891949
C     -2.6488682901     -0.6369223621     -2.9090943767
C     -1.4906694311     -1.1803750508     -3.6654432325
C     -0.4052838525     1.9484919363     -3.3310866462
C     0.8582439203     1.2857523591     -3.6623615309
C     0.584909407     -0.0310656319     -4.1380798529
C     -1.4403576876     1.1282348174     -3.7967127611
C     -0.8188670002     -0.1361627078     -4.2781235393


