58

 C     1.0818477976     0.0276433549     3.9280898922
C     2.2602142381     -0.3471223146     3.3138928166
C     2.1868561637     -1.7705023601     2.9170233749
C     0.22869277     -1.1637089943     3.9269860407
C     0.8458365141     -2.1890452764     3.0915994387
C     -1.04943165     -0.7603879675     3.6567580438
C     0.2963237682     1.1381622427     3.4036286376
C     -1.0577722338     0.7116031072     3.4576837678
C     0.7214873355     1.8665340449     2.2497839511
C     2.7909736556     0.3795030672     2.2255178547
C     2.0798033446     1.5539673766     1.7348319424
C     2.8639721446     -1.9093033749     1.6944146966
C     3.332762176     -0.5788822853     1.2725631838
C     2.2954567651     -2.7411697369     0.720531031
C     0.1108246474     -2.7095065929     1.9437723642
C     0.8831383337     -3.0661374664     0.8147587852
C     -1.8401125241     -1.3246191218     2.6121791253
C     -1.2807377864     -2.2583286957     1.6830133375
C     -1.9901270948     1.0278421879     2.483395199
C     -2.6654504614     -0.2276052306     2.1275424275
C     -0.3004953256     2.3701421506     1.3091301914
C     -1.6936015851     1.9587395832     1.4359792319
C     0.1327641072     2.8743404255     0.0042604032
C     2.4281600917     1.9531384455     0.4425913917
C     1.5027378163     2.7209734381     -0.3846663386
C     3.4743439174     -0.2471641134     -0.0935208282
C     3.2049858337     1.1106579522     -0.4395728636
C     2.5752956785     -2.4580046356     -0.6518228144
C     3.1501762365     -1.2673009459     -1.0927314466
C     0.3330287681     -2.9868640887     -0.5541324783
C     1.3829051926     -2.715866548     -1.4445269859
C     -1.8232948447     -2.2336130827     0.3204990188
C     -0.9635263115     -2.4922972252     -0.8375102565
C     -3.3118614139     -0.3281550198     0.9518953889
C     -2.997666042     -1.4503854522     0.0773128838
C     -2.6172111507     1.9694490321     0.2939001218
C     -3.535963214     0.8595467733     0.1280830548
C     -0.8194909835     3.0117378593     -1.0577530197
C     -2.1986399883     2.6317047601     -0.9097883021
C     -0.4202124626     2.7513682721     -2.4610206645
C     1.8693357783     2.506215681     -1.7420332863
C     2.8170708959     1.4427022625     -1.7681810264
C     0.8655830552     2.283721217     -2.7260541083
C     2.4288885858     -0.886642195     -2.3298843975
C     1.2777268821     -1.7572929696     -2.4770652096
C     2.3069198745     0.4458903023     -2.6688070815
C     1.0566552419     0.9432726668     -3.2509590059
C     -1.155128515     -1.7818305885     -2.1123368817
C     -0.0035272453     -1.2640043213     -2.8475521498
C     -0.0731629833     0.091687518     -3.4389175001
C     -3.3272242489     -1.0113280545     -1.2077486373
C     -3.8306702892     0.3575723521     -1.1637393177
C     -2.416810445     -1.1208234185     -2.3280988404
C     -2.6573550934     2.1750298106     -2.200368189
C     -1.4917217857     2.0966023737     -3.078005612
C     -1.3523563618     0.742366711     -3.5252827095
C     -3.3777458137     0.9956698576     -2.328937191
C     -2.5334697559     0.0501072703     -3.1006004642


