58

 C     1.2186929685     0.1826045902     3.987549548
C     2.4033573612     -0.0044922508     3.2413364471
C     2.4247795054     -1.3726508933     2.8349036145
C     0.3722815118     -1.0286402748     3.8377085904
C     1.1174464642     -1.9731192838     3.1201483169
C     -0.9056906864     -0.5959085279     3.3512691372
C     0.4383564394     1.2930537779     3.7413272877
C     -0.9526658676     0.8286840764     3.481066656
C     0.7699164608     2.2355684528     2.7364732806
C     2.6556100666     0.8180691674     2.0726452608
C     1.8482202437     1.9656205448     1.8031582277
C     2.9260985951     -1.4314638519     1.5176734424
C     3.0147309013     -0.0558129048     0.9812391336
C     2.500367367     -2.4653480053     0.7180031254
C     0.4833104127     -2.777994649     2.1213823627
C     1.3687724553     -3.291056257     1.1157946605
C     -1.5045392162     -1.2000044331     2.1896438082
C     -0.89582178     -2.4394472721     1.7041103826
C     -2.2791349873     -0.3461390359     1.2690474725
C     -1.5146524004     1.6367393371     2.5153509131
C     -0.5051850741     2.6702321283     2.2016600519
C     -2.2934514827     1.0993721281     1.4297143093
C     -0.5614794367     3.3134985971     1.0231671293
C     1.6716221685     2.3658688336     0.4063372353
C     0.6230124002     3.3291567188     0.1485287068
C     2.6821715363     0.2057715101     -0.3691955285
C     2.0711281689     1.5056854171     -0.6926114903
C     2.4692336924     -2.2913791558     -0.7322002105
C     2.501933896     -0.9454499467     -1.2782983892
C     0.8598139418     -3.8243972308     -0.0875120647
C     1.6085144739     -3.2671678197     -1.251595027
C     -1.3478821362     -2.955740809     0.4443724171
C     -0.4817041299     -3.765424954     -0.3814827428
C     -2.5970333253     -0.8650176852     -0.0620756974
C     -2.1124331857     -2.147165648     -0.4399734366
C     -2.9460913931     0.022899474     -1.1121528761
C     -2.5522527631     2.0003181887     0.3037347521
C     -1.7482063086     3.2075765609     0.1849950252
C     -3.0366909155     1.4381515838     -0.9289175611
C     0.1473392924     3.5873363549     -1.1230109913
C     -1.3291882218     3.6546294566     -1.0843424996
C     1.4488841101     1.6913899462     -2.018841541
C     0.5265819771     2.7863039197     -2.2514724845
C     1.7607998451     -0.7629745683     -2.4669462484
C     1.2529842771     0.5474088309     -2.840948497
C     0.6859730567     -2.9758028937     -2.2860159608
C     -0.6299826308     -3.3337962129     -1.7755911281
C     -1.6518776727     -2.4014409978     -1.8320284457
C     0.829370317     -1.7546801312     -2.9522557336
C     -2.4887999363     -0.227071236     -2.5109407181
C     0.0248854967     0.3545650235     -3.5816936927
C     -1.598507694     -1.3168519958     -2.7713222086
C     -0.3447139933     -1.0274046066     -3.3920630413
C     -2.7364149562     2.049744312     -2.2040444763
C     -1.7988959527     3.0777489206     -2.2667012009
C     -0.6320449397     2.6177111889     -3.0706548495
C     -2.3005868439     1.004328085     -3.1194108172
C     -0.9602614532     1.3538063757     -3.5980417359


