58

 C     1.5097784954     -0.1034563115     4.4577938291
C     0.7603797132     -1.2401878961     4.5040910925
C     1.2901328029     -2.2789967821     3.6176613309
C     2.4937152866     -0.3265852642     3.3901560668
C     2.3223377374     -1.6762206964     2.8235480824
C     2.3955022308     0.7336899317     2.5086193552
C     0.6056533053     0.965293859     3.9858596058
C     1.223464005     1.5873403103     2.9101385992
C     -0.637789492     -0.9729254967     4.124407591
C     -0.7197830021     0.4212773522     3.7382853165
C     0.1740950076     -2.8568391932     2.9805049882
C     -1.0262088423     -1.9804724899     3.2353874907
C     0.3407071097     -3.3538688749     1.6953864878
C     2.3168869921     -1.8603762882     1.3843635558
C     1.4498464727     -2.8623729488     0.872400112
C     2.6579230212     0.5902448701     1.1076197628
C     2.6025978551     -0.7290867469     0.4784336181
C     2.3425858552     1.7196900371     0.3534965259
C     0.4547964488     2.2107307275     1.8934816426
C     1.197980876     2.5701826783     0.7501381871
C     -1.4396412255     0.7808106448     2.5526495982
C     -0.9427070658     1.8806653208     1.7221929968
C     -1.9233381113     -1.680789342     2.1548301624
C     -2.2160703885     -0.2655169892     1.8851018556
C     -0.7947899591     -3.4503089109     0.8570584649
C     -1.9354855325     -2.6016332701     1.0564739081
C     0.9821814827     -2.8290567346     -0.4944750952
C     -0.3819472502     -3.2919492588     -0.4982819677
C     2.253306377     -0.7648213801     -0.9230775745
C     1.3517048733     -1.8290325247     -1.4070728527
C     2.3667471965     1.705330271     -1.0522748205
C     2.3411096226     0.448419345     -1.7297736526
C     0.609646689     3.0801131366     -0.4141979323
C     1.512562972     2.7865305223     -1.52892246
C     -1.5454748415     2.1988320494     0.4348906025
C     -0.8112234461     2.9618968811     -0.593598534
C     -2.7757720191     0.0620337083     0.6309275661
C     -2.5598277448     1.3164992717     -0.0199467084
C     -2.3723085463     -2.1852402272     -0.2557679625
C     -1.3737107612     -2.6297606248     -1.2490545764
C     -2.8977369827     -0.9288971832     -0.4293256184
C     0.4233486689     -1.5366982991     -2.5016578045
C     -1.0081403041     -1.8195770348     -2.3264615976
C     1.7955369914     0.475944644     -3.0581025579
C     0.7688385984     -0.5363129291     -3.4348380228
C     1.0770928021     2.8133032151     -2.8263573837
C     1.4230523765     1.6828087811     -3.6856561581
C     -1.2588352997     2.9875064516     -1.9577384653
C     -0.3376510356     3.1154531266     -3.0414556146
C     -2.8067621138     1.1497293105     -1.4506460761
C     -2.7892356579     -0.2653818964     -1.7057983245
C     -1.9611608269     -0.7776786423     -2.7573789817
C     -2.2987736537     2.0217020403     -2.3961704781
C     -0.1862903863     0.0642743205     -4.2929370175
C     0.2516733412     1.405060571     -4.5086418875
C     -0.782682982     2.2695388401     -4.1122577626
C     -1.5757968371     0.1228995173     -3.7748724289
C     -1.9360408981     1.5062424814     -3.6791580781


