58

 C     1.648612091     -0.0938805805     4.4413938645
C     0.8863163981     -1.2327090581     4.5093318996
C     1.3344336016     -2.2159954469     3.543613172
C     2.5692624849     -0.2678297343     3.3237703726
C     2.3763992257     -1.602841153     2.7520224257
C     2.3350474932     0.7975199928     2.4498887858
C     0.7280234615     1.0127196985     4.1076052927
C     1.2167120482     1.6463991312     2.9597168894
C     -0.543706161     -0.920489932     4.2612513881
C     -0.6383937678     0.5054791607     4.0814122112
C     0.1644709864     -2.6514277607     2.8738409292
C     -0.9934842952     -1.7817311453     3.2457971662
C     0.2657521806     -3.0345898408     1.5567791384
C     2.3790483922     -1.7756082331     1.3320295478
C     1.4547714449     -2.7281221804     0.7990665802
C     2.4782499008     0.6712047476     1.0348936802
C     2.6264809657     -0.6349095539     0.4414607409
C     1.9768649799     1.7653334367     0.2352722382
C     0.33087093     2.2649110154     2.0136327206
C     0.8200926842     2.5296193258     0.6687283818
C     -1.4802542385     0.9720779456     3.0707350379
C     -1.0517627496     2.0320418784     2.1885007142
C     -1.8805266229     -1.3161030111     2.1837698981
C     -2.22055191     0.054608424     2.2232024412
C     -0.8506414513     -2.9225121899     0.6355538933
C     -1.8846269987     -1.9841994814     0.8635782266
C     1.1041848769     -2.7782386556     -0.5940506065
C     -0.3089850253     -3.0773742567     -0.6769570338
C     2.4357080814     -0.7727260771     -1.0027265916
C     1.6950978923     -1.9226466046     -1.5535093983
C     2.254399753     1.6915202111     -1.1507271939
C     2.4573801989     0.3925452251     -1.7856492372
C     1.6071958992     2.5504835642     -2.0422399308
C     -0.0914840775     3.0268584891     -0.3480799616
C     0.3941180392     3.1941425854     -1.6784881448
C     -1.8774156277     2.0011614924     1.006894641
C     -2.5682121217     0.7534203779     0.9999436537
C     -1.5106371344     2.6464753658     -0.1861977768
C     -2.4871168432     -1.3296209708     -0.3277238895
C     -2.8474042945     0.1015536509     -0.2240742525
C     -1.0379730576     -2.6920299439     -1.787347326
C     -2.186602907     -1.8160465078     -1.6165725696
C     1.0068852184     -1.7825369984     -2.8092870589
C     -0.3237523     -2.2528546034     -2.9213194932
C     1.8683890092     0.4781460825     -3.124720873
C     1.4135166599     1.8429449147     -3.3152446748
C     1.0807980883     -0.5586913247     -3.6065017481
C     -0.4876683849     3.0297274122     -2.8271628488
C     0.1731024314     2.1483163892     -3.8294235417
C     -2.2578796815     2.2493237728     -1.3327792744
C     -2.8508906184     0.9333617642     -1.3727017403
C     -1.75633542     2.5335396817     -2.6443888717
C     -2.2432687275     -0.9673269173     -2.8237162038
C     -1.116267087     -1.2645903492     -3.6385245177
C     -0.2595967247     -0.2601382009     -4.1696655267
C     -0.7365856815     1.0751239679     -4.1909604006
C     -2.6251960814     0.3846997062     -2.7181494222
C     -1.9649654363     1.3525112917     -3.5047958317


