58

 C     1.3373198796     0.1648985396     4.2748136217
C     2.5117196587     0.1386501719     3.5175294702
C     2.5789259916     -1.1516370231     2.8420415709
C     0.5400341863     -1.0237482494     3.8755764216
C     1.2930214778     -1.8012553996     2.9646309994
C     -0.7518384148     -0.5801992098     3.5036065905
C     0.4903253315     1.2898854312     4.2073107489
C     -0.8610459201     0.8168079235     3.8302975314
C     0.8095036219     2.3700209509     3.3705499934
C     2.7738446805     1.1589291881     2.518210297
C     1.899592202     2.2624433533     2.4310074214
C     3.1084951453     -0.9575405215     1.5622487727
C     3.164812824     0.4871178195     1.2882947385
C     2.7087984689     -1.8268129045     0.5535822794
C     0.6581246883     -2.3795387726     1.7947906533
C     1.5115126182     -2.6141661816     0.68527128
C     -1.404164616     -1.092905428     2.3121611383
C     -0.7438524874     -2.096436813     1.4947736679
C     -2.3621476001     -0.2154985125     1.6781387329
C     -1.399982632     1.7067898759     2.8876343333
C     -0.390166239     2.7145506769     2.6122381161
C     -2.2040544384     1.2251689204     1.828532455
C     1.3760879377     2.6311659026     1.1170602045
C     -0.0522990666     2.9400149298     1.2812577527
C     2.7688383492     0.9298476028     0.0093838982
C     1.8012006067     2.0402570373     -0.0781192471
C     2.8076436333     -1.4186909134     -0.8137390377
C     2.81073379     -0.0281320243     -1.1038623902
C     1.0235871824     -2.8739734136     -0.6510339504
C     1.97434731     -2.3141879797     -1.5882089372
C     -1.2612373579     -2.3989801245     0.139436339
C     -0.3583871537     -2.85640409     -0.9425341068
C     -2.9988302856     -0.6832693781     0.5019106001
C     -2.4720495272     -1.8089698678     -0.2542405064
C     -3.5863826021     0.2213727217     -0.3951877711
C     -2.2402360144     2.0133498072     0.6078918131
C     -0.9938778703     2.6859166308     0.2414218902
C     -3.0842618813     1.5717197262     -0.4301002231
C     0.9234667756     2.1675108098     -1.2669381968
C     -0.4956510194     2.5532904763     -1.099275172
C     2.2334734246     0.3618781291     -2.3572935936
C     1.278015754     1.4831334222     -2.4326343711
C     1.5835625787     -1.9668759479     -2.8701124747
C     1.8346457447     -0.6044566041     -3.291347902
C     -0.7238721669     -2.6313640258     -2.3294966187
C     0.2562924192     -2.2822152226     -3.279087914
C     -2.844411566     -1.5898775389     -1.6661519888
C     -3.5470459493     -0.3337233539     -1.7358831326
C     -1.9593150035     -1.9135857598     -2.6789011545
C     -2.749594934     1.8342910907     -1.7814873074
C     -1.435871223     2.2137925663     -2.1279159927
C     -3.1019752042     0.6632273815     -2.6078080684
C     0.3064939784     1.1541834713     -3.4818735896
C     0.6669617843     -0.1296853757     -4.0241721462
C     -0.2753875914     -1.156144836     -4.0733932817
C     -1.6358630439     -0.9284483003     -3.721413556
C     -1.0369527718     1.4454993431     -3.3081773094
C     -2.0606274432     0.4130098918     -3.5412134113


