58

 C     1.2579010104     -0.4095848595     3.8380785239
C     2.247561399     -0.7310586546     2.8548401645
C     1.9311357913     -2.0900362787     2.4166814538
C     0.403820065     -1.5277303424     4.0931924797
C     0.7274310899     -2.5103895714     3.1060744951
C     -0.9254001356     -1.0897935763     3.7996637538
C     0.4305405424     0.7621822585     3.6295039573
C     -0.9627584884     0.3219785558     3.5649873401
C     0.8942294273     1.7423181013     2.7757215856
C     2.6700105654     0.2442580021     1.8947186864
C     2.0974309278     1.549414316     2.0153253928
C     3.0615984978     -0.202467041     0.5377268936
C     2.0824070336     -2.4507978383     1.0932331242
C     2.7468358394     -1.5495526538     0.1483653788
C     1.0224099745     -3.1095756144     0.3823831343
C     -0.4221092148     -2.8546149209     2.3255430756
C     -1.4888870703     -1.9726538876     2.7977318582
C     -0.3001450716     -3.1354359412     0.9263352319
C     -2.4063711586     -1.4482612742     1.9102780313
C     -1.8374561871     0.8768950447     2.5756947544
C     -2.6963890945     -0.0417193833     1.8943903647
C     -0.0378405143     2.4961294923     1.9332834915
C     -1.4114960951     2.0858331223     1.8332536567
C     1.9933991056     2.4147255237     0.863280584
C     0.6799234364     3.0402005638     0.8241044142
C     3.1247953865     0.7426684032     -0.5149760665
C     2.6549125972     2.1005135566     -0.3142663214
C     2.825532941     0.3848341476     -1.90375121
C     2.3332701655     -1.8849924388     -1.1774085298
C     1.2349196756     -2.8264284177     -1.0181541706
C     2.3224946658     -0.9104180017     -2.2301329585
C     0.1670786795     -2.8127324485     -1.9026289723
C     -1.4142635281     -2.7753838186     0.019019865
C     -2.4519515332     -1.9187169337     0.5235345018
C     -1.1799014924     -2.7009361729     -1.375535364
C     -3.1874974991     0.2569759408     0.569111163
C     -3.0760255957     -0.9177970985     -0.2826155091
C     -2.0691349189     2.4295810435     0.6271718283
C     -3.0372623589     1.5270175565     0.0333202215
C     0.0328083499     3.3186510839     -0.4257070666
C     -1.3773322066     3.1034520249     -0.4742803174
C     2.0833584244     2.5462143808     -1.5490125415
C     2.2682625224     1.5293732658     -2.5373909014
C     0.780866479     3.0988626827     -1.6420528146
C     1.0840843828     1.465864458     -3.3409616742
C     0.1553031776     2.4956526739     -2.8253828188
C     1.2675401968     -0.9851650031     -3.2144836525
C     0.2529388201     -1.9621341206     -3.0511156523
C     0.6046564304     0.2244548615     -3.7172129316
C     -1.9035987373     -1.7650713358     -2.2395359577
C     -2.7832343     -0.7895561014     -1.6811998791
C     -1.0351532953     -1.3940948865     -3.3026198492
C     -0.8522333713     -0.0328370804     -3.7092575374
C     -2.9272156603     1.6510260928     -1.388784376
C     -1.9761462714     2.6753592918     -1.6908770949
C     -1.2059135005     2.2514212765     -2.821785409
C     -2.7497839528     0.5382951889     -2.2495668822
C     -1.7239563178     0.9257828055     -3.2258529176


