58

 C     1.4666058166     -0.2015205595     4.3359731337
C     0.6861541303     -1.3055011513     4.3017762583
C     1.2040739345     -2.2193253171     3.272222283
C     2.5267284487     -0.3385043946     3.3210762293
C     2.2765674545     -1.5605431215     2.550237988
C     2.538386654     0.8406910715     2.6103432188
C     0.6420458404     0.9781332359     3.9879772075
C     1.3622153095     1.6781821315     3.0429427964
C     -0.686873531     -0.9104634661     3.9061009746
C     -0.6705451381     0.5079492985     3.5683988563
C     0.1076395208     -2.6269494876     2.5332522568
C     -1.0763273689     -1.7782889116     2.9098154813
C     0.2396639609     -2.9607515255     1.174535823
C     2.246270168     -1.5114238122     1.1032441486
C     1.3024960804     -2.3881798797     0.3844351791
C     2.8805703874     0.8717972837     1.2255842226
C     2.6879925357     -0.3177692579     0.4060965395
C     2.7411720933     2.1513545252     0.6711189422
C     0.7111761763     2.4651422352     2.0599288388
C     1.6179017154     3.0027855704     1.1277033096
C     -1.2676215277     0.9910418718     2.3349157794
C     -0.6476527452     2.1357424138     1.6662468829
C     -1.9595988652     -1.3443077724     1.863290236
C     -2.0688815657     0.0775191787     1.5263178817
C     -1.0196966556     -3.2252984379     0.5723572025
C     -2.1437169619     -2.2935417516     0.8702398818
C     -1.07583133     -3.4784797902     -0.7613901812
C     1.0743898342     -2.2516390454     -1.0509204486
C     -0.0152973963     -3.0155333338     -1.6264744193
C     2.3912480335     -0.115286276     -1.025085454
C     1.5261957995     -1.0566287792     -1.7534598899
C     2.8589694192     2.3397331626     -0.7203113514
C     2.5615060336     1.1854931224     -1.5755299128
C     1.1348537007     3.6554838884     -0.014846581
C     2.0743957567     3.4456630182     -1.132440815
C     -1.0751158813     2.5161653673     0.3363516335
C     -0.1924537149     3.3750850502     -0.433763712
C     -2.5266706345     0.4284038313     0.185723515
C     -2.0582513023     1.6917925777     -0.3754673866
C     -2.8417499353     -2.0135013939     -0.3432420174
C     -2.3563528893     -2.9559929198     -1.3032380257
C     -3.0711091593     -0.6346871425     -0.7147513045
C     -0.6442007298     -2.5985462081     -2.8243992059
C     -2.1350823732     -2.5951446065     -2.6119675751
C     0.7875575437     -0.5947066673     -2.9436785158
C     -0.3098973589     -1.3979395727     -3.4597668163
C     1.68555803     1.6728071761     -2.6123751785
C     1.3055511862     3.018102318     -2.220318118
C     -0.0922862371     3.1921267774     -1.889095464
C     0.7378968217     0.8349677106     -3.235019502
C     -2.1569222448     1.8532663833     -1.8122347106
C     -1.0035734934     2.4263684144     -2.5373466816
C     -0.5647177187     1.4300012464     -3.490538181
C     -3.1418305925     -0.4012402559     -2.1343072765
C     -2.6415754069     -1.3856078138     -3.0741859715
C     -1.5679911679     -0.7522157602     -3.8524271901
C     -2.6796653871     0.8604866573     -2.6252127768
C     -1.684293103     0.6032328444     -3.6944120472


