58

 C     1.4575718223     0.1546263787     4.4112132669
C     0.6876157264     -1.0072000837     4.1236176952
C     1.4737186705     -1.9133328349     3.3828374715
C     2.6191328961     0.1034269376     3.4793426449
C     2.6608044982     -1.1540371751     2.8855268636
C     2.6399980411     1.2487720227     2.6271890295
C     0.7066414712     1.236935594     3.9259163989
C     1.5037928537     2.0710235204     3.0677095173
C     -0.611565431     -0.6003339318     3.5293024586
C     -0.605292054     0.8212461686     3.4202572402
C     -1.2370487575     -1.3799642476     2.5311593729
C     0.9181794198     -2.5996912261     2.3136585583
C     -0.5013872406     -2.5545388511     2.0619697123
C     2.7062945654     -1.3221696825     1.4708077084
C     1.7571005324     -2.3526814686     1.149608419
C     2.8607816587     1.1219392656     1.2005704573
C     2.8263377062     -0.1998330858     0.56447558
C     2.428404819     2.2260570117     0.4065414674
C     0.8484940087     2.8993594504     2.1924311401
C     1.5204171328     3.2273633463     0.9738432066
C     -1.2079450314     1.5020915993     2.3035393028
C     -0.5517865662     2.6915242538     1.8539454833
C     -2.1181831414     -0.6958273814     1.5648072534
C     -2.0206814807     0.7401390452     1.3604593237
C     -2.6473073349     -1.4891006164     0.5088502037
C     -0.8753291593     -3.1304406534     0.8481432917
C     -2.0881989715     -2.7643470135     0.255309859
C     1.2953975375     -2.5607789625     -0.1691257003
C     0.0696036776     -3.2575254207     -0.2756331937
C     2.3586684491     -0.3567796915     -0.8131667643
C     1.7325711865     -1.6314070417     -1.2241817179
C     2.1086473558     2.0848593115     -0.968035629
C     2.0736399637     0.813896874     -1.6273278606
C     0.5877626404     3.6045262286     0.0110249786
C     -0.7087914154     3.1356327646     0.5037560459
C     1.0353322893     3.0585923245     -1.237403493
C     -2.3089576061     1.2941492017     0.021570587
C     -1.6197435498     2.5025906158     -0.3785797825
C     -3.0345070099     -0.9409017765     -0.779185807
C     -2.8724431546     0.4296105873     -1.0426971211
C     -2.0414985289     -2.9835580208     -1.1884110963
C     -0.6683430987     -3.2341642655     -1.5095574547
C     -2.7341916769     -1.9519281682     -1.8231241342
C     1.0857055089     -1.7395932303     -2.4634997542
C     -0.0946523028     -2.594200372     -2.6251144102
C     1.2838146173     0.7094569001     -2.8719541251
C     0.917548884     -0.5877912123     -3.354761812
C     0.1140941469     2.7914378666     -2.1868774436
C     -1.3164415415     2.689069911     -1.8004596288
C     0.3635339157     1.7817496977     -3.1936757209
C     -2.7250076244     0.8012748645     -2.4617805294
C     -1.9262158196     1.9498364271     -2.7779001244
C     -0.8967726228     1.51452452     -3.7769864294
C     -2.288825023     -1.5416414938     -3.1093455513
C     -0.9674629109     -1.9402638867     -3.5292613324
C     -0.2843637108     -0.7888421907     -4.1047972314
C     -2.4532578684     -0.1802669052     -3.456301383
C     -1.2354053721     0.247428211     -4.2002392971


