58

 C     1.1437196635     0.0623860058     4.7641154326
C     0.4354812381     -1.1263361896     4.334344659
C     1.3092704267     -1.9451079528     3.6159494511
C     2.437946987     0.05254323     4.0709618
C     2.5751011235     -1.1913199648     3.4066739036
C     2.5427281456     1.2193606958     3.277404634
C     0.4269280156     1.1543077744     4.238910807
C     1.2901803992     1.9876996818     3.4509601761
C     -0.7932245818     -0.7610176701     3.6566625484
C     -0.8172875038     0.692113507     3.6221379098
C     -1.2616581531     -1.5052924078     2.5206895451
C     0.9373600996     -2.5773778657     2.3900071994
C     -0.3792200882     -2.4795833351     1.8519806413
C     2.8964537795     -1.2893307399     2.0332977813
C     2.052503434     -2.3507159992     1.4898928435
C     2.8054969511     1.138545751     1.8793737085
C     3.0414571344     -0.1105484888     1.2009884119
C     0.8643939949     2.4212118749     2.1945764675
C     1.8984058812     2.0487758616     1.2173951077
C     -1.3452939037     1.357616166     2.4953072309
C     -0.5072314791     2.3053038222     1.753439918
C     -2.1692298588     -0.8182830557     1.6866859439
C     -2.2592855156     0.5973484715     1.7083756404
C     -2.5367327472     -1.2621089987     0.337189462
C     -0.5637767033     -2.7395381978     0.4142339217
C     -1.7700934596     -2.2512290006     -0.3130282598
C     1.8661369478     -2.4715063619     0.1502966928
C     0.5956555918     -2.8961047046     -0.3664998916
C     2.7162646212     -0.1897582055     -0.2286255233
C     2.354258111     -1.4574500311     -0.7721008364
C     1.6059993785     1.9980859512     -0.1342253088
C     2.1509781341     0.9343406001     -0.9614215385
C     -0.7706607983     2.5445329373     0.3741106565
C     0.3520850909     2.61416631     -0.5477850038
C     -2.662063234     1.014870022     0.40465497
C     -3.0298342691     -0.1400563567     -0.3970197833
C     -2.0527622308     2.123593844     -0.231017722
C     -3.0546505543     -0.0899870712     -1.8196408879
C     -1.8058524465     -2.2339808677     -1.741264874
C     -2.552649781     -1.2648351565     -2.5004644359
C     0.6078501443     -2.5614387176     -1.7799971494
C     1.675163059     -1.613726001     -2.0179589913
C     -0.5679726137     -2.4936281626     -2.4971673203
C     1.6776243215     0.7997195834     -2.3429032526
C     1.476096141     -0.5325791049     -2.9231894649
C     0.1241389081     2.6882212382     -1.9148222225
C     0.8778934111     1.8649361712     -2.8605247835
C     -2.2662119877     2.2516771492     -1.617674216
C     -2.862121649     1.2054923295     -2.4258952914
C     -1.2109917358     2.8264474465     -2.4394707249
C     0.0108096744     1.6865366102     -4.0019668178
C     -2.2738697422     1.3256315265     -3.7551897149
C     -1.2815649153     2.3639947775     -3.7531853009
C     -1.8837287826     -1.0821442874     -3.7827435436
C     -0.5759212891     -1.6961587836     -3.6548687907
C     0.4525172548     -0.7191256605     -3.9237931478
C     -1.7161766516     0.1677047235     -4.3572060413
C     -0.230831418     0.4031052971     -4.4789666449


