58

 C     1.6365161641     0.0498990787     4.369039557
C     0.8788590312     -1.1907401734     4.274355003
C     1.7194251933     -2.1158266252     3.6303159335
C     2.7576805061     -0.0357226333     3.4342095471
C     2.8816447989     -1.3511835127     3.0058899096
C     2.646242885     1.0305422355     2.4660462197
C     0.8384305921     1.1153722048     3.985085718
C     1.5566331398     1.8569020256     2.9555140322
C     -0.4028183715     -0.8777098434     3.6816691281
C     -0.4486871655     0.5764176574     3.5664507771
C     -0.945218294     -1.6607558728     2.5922527471
C     1.2017326679     -2.9378457921     2.6599592627
C     -0.1438325654     -2.7935402621     2.1850410259
C     2.9015380941     -1.6641020903     1.6220381058
C     2.069161681     -2.8403433851     1.4689015907
C     2.7141285566     0.7673030279     1.0525993579
C     2.8272490516     -0.6194253789     0.5912817158
C     2.0905467791     1.7295541188     0.1439250268
C     0.8122350403     2.5767081709     2.0729299156
C     1.2370989213     2.7165898929     0.719526934
C     -1.204267311     1.2137790843     2.5532066993
C     -0.6542293078     2.4322600998     2.0249307717
C     -1.8149719989     -1.0219419651     1.576953617
C     -2.0419691285     0.4152471138     1.6512149135
C     -2.0414193771     -1.6617056847     0.285340134
C     -0.1010594672     -3.095157659     0.7893554304
C     1.3122551678     -3.0191396092     0.3529605769
C     -1.0919334399     -2.7098721013     -0.0904336295
C     2.2880151996     -0.9701765034     -0.7129691825
C     1.6078280427     -2.2645211305     -0.8331720586
C     1.8676732263     1.4133819507     -1.2662198629
C     1.9447493404     0.0403726759     -1.7250926835
C     1.0686911612     2.3403391138     -2.0342816173
C     0.1085757423     3.2567166835     -0.0032406722
C     -1.0897603706     2.9618160701     0.7958860971
C     0.0739138789     3.1861783142     -1.3539787102
C     -2.6164514249     1.0811574113     0.5359745869
C     -2.1759435667     2.3937933659     0.1299721448
C     -2.7384043925     -0.9872316411     -0.811678644
C     -3.0306593904     0.39537967     -0.6620190687
C     -2.5869273016     -1.4638868994     -2.1905957535
C     -0.7092137805     -2.8407106604     -1.4699871107
C     0.6879351151     -2.4653969439     -1.8401967671
C     -1.5286674959     -2.4197554002     -2.4753198382
C     1.2343498248     -0.3534477032     -2.9695131211
C     0.6250782378     -1.6571991686     -3.0082628553
C     -0.6958665081     -1.8418104666     -3.5382511754
C     0.5034460606     1.9728134056     -3.2528990278
C     0.5627956753     0.6529698052     -3.769737399
C     -1.206827171     3.0229260912     -2.0498790958
C     -2.3034759247     2.5094089169     -1.3081209799
C     -2.9768652923     1.3257427119     -1.7900916324
C     -0.9015294426     2.472937375     -3.3194721475
C     -2.6350222759     -0.5645791663     -3.2820459981
C     -1.4075989829     -0.8023503595     -4.1123923754
C     -0.7591319702     0.4084606543     -4.3307009707
C     -2.7331993735     0.8416412761     -3.0957883793
C     -1.668478684     1.4694684396     -3.8764857327


