58

 C     1.4794535267     0.05808907     4.2086904217
C     0.6835080408     -1.1601163334     4.2469036361
C     1.3914749666     -2.1402418959     3.5440251289
C     2.6116989246     -0.1639180946     3.2923494875
C     2.595792474     -1.5092088886     2.9289158401
C     2.5829274904     0.8260524976     2.2607868864
C     0.706198889     1.0568239061     3.6481100646
C     1.4151936514     1.670486777     2.5268798687
C     -0.661365284     -0.8370560343     3.8034749286
C     -0.6652272644     0.5790644264     3.4358744016
C     -1.3295458431     -1.7178610375     2.9503795062
C     0.7720427486     -2.951611454     2.5468561222
C     -0.6218464891     -2.8514824956     2.3494565538
C     2.6514664346     -1.9004769027     1.5627575805
C     1.6250755537     -2.9377379584     1.3583154947
C     2.8106476225     0.4798211383     0.9091885421
C     2.8637725071     -0.9378406428     0.5377661137
C     2.3810578955     1.455920145     -0.0860161914
C     0.6997896485     2.2636020931     1.5063015695
C     1.3454980145     2.4094685751     0.1997765267
C     -1.3895723085     1.0640762766     2.3511790318
C     -0.7755211237     2.1520082541     1.5438117504
C     -2.2394186558     -1.2047402578     1.9529101161
C     -2.3445291129     0.1794160703     1.6689852606
C     -1.1853979906     -3.0769681534     1.0390999038
C     -2.294800811     -2.1577127261     0.8517151029
C     1.0742020201     -3.1410323083     0.1082406833
C     -0.3532677539     -3.3190188106     -0.0606207547
C     2.4524689676     -1.3030993891     -0.8271533932
C     1.5558546781     -2.3944377661     -1.0337890113
C     2.5866977369     1.1096716893     -1.4585513081
C     2.4548990876     -0.3227688048     -1.825482708
C     2.0556773068     1.8768644156     -2.47179263
C     0.6272099228     3.0883389111     -0.8762126277
C     1.0788288401     2.9068268879     -2.2322445264
C     -1.4606119819     2.6238305514     0.4578184538
C     -0.7900472824     3.2928194896     -0.6753471775
C     -2.9058255303     0.586723967     0.3893277842
C     -2.6518693713     1.9305832834     -0.058568528
C     -2.6622820181     -1.7421799592     -0.4081899152
C     -3.1250895181     -0.3923859803     -0.6230245688
C     -0.694813348     -2.8085025827     -1.3758952896
C     0.504829885     -2.2910098908     -2.0097433343
C     -1.885492176     -2.1266858091     -1.5805799436
C     1.613986859     -0.3886113797     -2.98211423
C     1.5061096456     0.9523792459     -3.4887022387
C     0.4593409094     -1.2401210568     -2.9689968567
C     0.121808663     2.7892523486     -3.3043626801
C     0.3369264307     1.4673678001     -3.9651363075
C     -1.6885846973     3.2292284622     -1.7577336162
C     -2.7617483303     2.2815533331     -1.3988042119
C     -1.2316571804     2.8888558183     -3.0504066384
C     -2.8864334111     -0.0690766325     -2.0087650202
C     -1.973553977     -1.0594282926     -2.5518048803
C     -0.8535601585     -0.6521087062     -3.3435105501
C     -0.8965659617     0.6973710503     -3.8788428754
C     -2.8218330922     1.2718199576     -2.4300954581
C     -1.8939786596     1.6091238031     -3.4474092893


