58

 C     1.6213679903     -0.2725884466     4.2962012263
C     0.7728669492     -1.345489518     4.1841922088
C     1.2086713093     -2.2369078197     3.1355874227
C     2.630202508     -0.4068368997     3.2325442202
C     2.3636447989     -1.6268519871     2.4885615008
C     2.5993404163     0.7706317295     2.4895148897
C     0.8306710755     0.9175282359     4.0166988731
C     1.4671185387     1.6211362654     3.0049473213
C     -0.604177082     -0.8984314449     3.8767397886
C     -0.5756078905     0.5084627691     3.7518743637
C     0.0778098974     -2.5205063612     2.344454601
C     -1.0563313218     -1.6832093907     2.7779306508
C     0.2179926704     -2.8092734212     0.9758646369
C     2.4359377307     -1.6469166748     1.0722690706
C     1.5050606877     -2.5275738318     0.3706511446
C     2.8641899863     0.7816836334     1.0890394805
C     2.8650641717     -0.4494270162     0.3387563381
C     2.4955686074     2.00079414     0.4230408264
C     0.7237440269     2.4415020637     2.0950606171
C     1.3977157531     2.8388819431     0.9301164253
C     -1.3148827033     1.1326634972     2.7083950466
C     -0.7428160062     2.3168166241     2.0648644653
C     -1.9189241021     -1.1383993222     1.8042797761
C     -2.2043498686     0.2843559193     1.90393694
C     -0.9839034276     -2.761087066     0.1546620719
C     -2.0240892439     -1.8221525907     0.5061150414
C     -0.8196458746     -3.1391054613     -1.2184535149
C     1.5687012566     -2.5776862441     -1.0391776178
C     0.5087598278     -3.1150844821     -1.7723919774
C     2.6858771359     -0.379402149     -1.1283229986
C     2.1385985419     -1.4805090866     -1.8099854684
C     2.4728664418     2.0721119544     -0.9663166151
C     2.4951740831     0.8898374033     -1.765501275
C     0.6956814366     3.3464491662     -0.2409499487
C     1.4084039203     2.9385107968     -1.4149279155
C     -1.400246207     2.838017022     0.931118738
C     -0.6910675665     3.3479862435     -0.2482876997
C     -2.8711894119     0.8827504896     0.8109909973
C     -2.5677836574     2.2061748847     0.4507849657
C     -2.8017470063     -1.2029097893     -0.5735527391
C     -3.1853131123     0.1473432783     -0.4109619139
C     -1.7093517303     -2.6989668675     -2.2224780788
C     -2.62912566     -1.6715233984     -1.9466900058
C     0.455307113     -2.4547275454     -3.0737976193
C     1.3516971373     -1.344166648     -3.0308387546
C     -0.8873130964     -2.2677078827     -3.3972159365
C     1.504546047     1.0679137512     -2.7944533089
C     0.7614418702     2.2988856321     -2.4824760845
C     0.8803019654     -0.0316957468     -3.440734236
C     -1.3992300094     2.8955243034     -1.4425066178
C     -2.6116552626     2.3050153109     -1.0012241095
C     -3.072672671     1.0906597811     -1.5257654231
C     -0.6820264585     2.304431115     -2.570918704
C     -2.5501053825     -0.7135243001     -3.0389699199
C     -1.3587036565     -1.0226392287     -3.8221299394
C     -0.5068436614     0.1230153994     -3.8277716097
C     -2.5473251998     0.6488432878     -2.7647001685
C     -1.2878965946     1.2273739902     -3.2576934487


