58

 C     1.1916994341     -0.1101703214     3.9513303967
C     2.2946193393     -0.4363087416     3.2152007342
C     2.1539871268     -1.8158349117     2.6960994388
C     0.3212179988     -1.3148148798     3.9643422114
C     0.8696156677     -2.3053714442     3.0325411907
C     -0.957413858     -0.8827189797     3.7844214791
C     0.3783205762     1.0420517621     3.5501766563
C     -0.9566370947     0.5978136669     3.5871312368
C     0.7848940893     1.8972705401     2.4813833343
C     2.7704618302     0.4042997497     2.1598655664
C     2.1196983145     1.6592592752     1.9031146673
C     2.6361550551     -1.7961511832     1.3731183549
C     3.0973987425     -0.4388510811     1.0482697568
C     1.9299265564     -2.5159650542     0.4077698219
C     0.0293127216     -2.8772861692     2.0030405881
C     0.6581289573     -3.0894427003     0.7268719973
C     -1.857952281     -1.4699351705     2.8377341099
C     -1.4072149937     -2.5316979598     1.9732138061
C     -1.8869638015     0.8834713826     2.5790696806
C     -2.5920306715     -0.3636889448     2.275894772
C     -0.261035076     2.4167246781     1.5772519331
C     -1.5814277627     1.814143418     1.5391676094
C     0.1639464101     3.1177127338     0.4058956295
C     2.4177140616     2.2236528195     0.6497177322
C     1.5199933642     3.155206933     0.0653240234
C     3.0783970286     0.0417145317     -0.2949767978
C     2.9687889452     1.444185691     -0.4452126536
C     1.9205293999     -2.0651371248     -0.9776930466
C     2.5540601755     -0.8441944851     -1.3635967532
C     -0.0889436346     -3.1102283798     -0.5257949309
C     0.7112776709     -2.5027122011     -1.5866906471
C     -2.1261222412     -2.6668110974     0.737673216
C     -1.4542165216     -2.9727089747     -0.5316429044
C     -3.2344450771     -0.4872048161     1.0603147191
C     -3.1405358343     -1.7452133502     0.398126283
C     -2.3036897536     1.6904620482     0.251372234
C     -3.1578891085     0.5738646379     0.0746605029
C     -0.6064353666     3.1229462226     -0.8548801726
C     -1.7779742973     2.3560541873     -0.9588317195
C     1.6324127511     3.0972846624     -1.3819278257
C     2.5011881823     2.0262337461     -1.6994683028
C     0.3440603155     3.2186939986     -1.9697003174
C     2.1048628751     -0.2724552789     -2.5777248275
C     2.1596590102     1.1900354299     -2.7897586466
C     0.1311869782     -1.79940508     -2.6823017245
C     0.9625746512     -0.7978246943     -3.281860446
C     -2.0850418386     -2.2194546733     -1.6244326658
C     -3.1388215002     -1.4963704195     -1.0233300477
C     -3.2606601155     -0.0931180878     -1.2329232827
C     -1.3324441057     -1.6266043306     -2.6911903056
C     -2.0682957425     1.7845598276     -2.2797143815
C     -2.6679612312     0.4417269261     -2.3488313307
C     -1.8423200179     -0.3792288349     -3.1991689876
C     0.1060680122     2.5180975942     -3.1690151728
C     1.0805856124     1.5546799652     -3.6094622554
C     0.3628761781     0.314741916     -3.9717694098
C     -1.1793230071     1.9036986655     -3.3438161467
C     -0.9898231194     0.5363223508     -3.8943779597


