58

 C     1.4718951971     0.0663911777     4.027717396
C     0.7080956667     -1.1132410141     3.8508465933
C     1.380079718     -1.9376777015     2.8826922578
C     2.6041189791     0.0491614758     3.1158484653
C     2.6082240211     -1.2368177641     2.4800310354
C     2.5464504448     1.2202364916     2.3366620524
C     0.6819885664     1.2184181707     3.8245976408
C     1.3764217099     2.0076272735     2.8332975189
C     -0.650092652     -0.6864720011     3.6252924459
C     -0.6752153458     0.8039625821     3.5791567946
C     -1.3865050008     -1.384727109     2.6973143697
C     0.629018031     -2.6488641204     1.8934875839
C     -0.7880199706     -2.4520041217     1.9174092503
C     1.2462871046     -2.9472383266     0.5866462833
C     3.0147754317     -1.2967647505     1.1565466212
C     2.4564416512     -2.2671663324     0.2402303536
C     2.844017899     1.183661205     0.9253252719
C     3.2509360138     -0.0754794095     0.4071823269
C     2.1465617941     2.1109737992     0.0108080058
C     0.6226381417     2.6823261818     1.9184300113
C     1.0600804754     2.8816474913     0.5305205192
C     -1.4557769562     1.4649629637     2.6065412237
C     -0.8273809088     2.5735231561     1.9135934236
C     -2.3872252717     -0.7213627706     1.8628179645
C     -2.4588622195     0.7022768599     1.8271891111
C     -1.5835778789     -2.5761460976     0.7249498069
C     -2.5692815392     -1.4934632887     0.6805841878
C     0.3891845985     -3.3070567016     -0.5057865975
C     -1.0430160157     -3.0670809155     -0.4380228866
C     0.7637032736     -3.0334118233     -1.8460397827
C     2.6827297798     -1.7827072982     -1.1057261485
C     3.0916739464     -0.4011011272     -0.996151972
C     1.8475649928     -2.1751471098     -2.1599087986
C     2.0787023262     1.8029259902     -1.3770573734
C     2.576220273     0.541225533     -1.8780211195
C     0.9615820686     2.2051476967     -2.2041496407
C     -0.0789949616     3.1941870356     -0.2428710488
C     -1.2554131506     2.9881888497     0.6362054971
C     -0.1548439404     2.9030066529     -1.6444901547
C     -3.0031000176     1.2587538332     0.6497265239
C     -2.452578336     2.5020272546     0.0873109396
C     -3.0086296515     -0.9256237258     -0.5508052931
C     -3.3937407003     0.4482282276     -0.4800025208
C     -1.5126148004     -2.5518893648     -1.7332756859
C     -0.3956493245     -2.6082923784     -2.6010639859
C     -2.4301219053     -1.4625175054     -1.8121217179
C     1.3754273526     -1.2027585856     -3.1463743455
C     1.7328522982     0.135398306     -2.9946690725
C     0.775477669     1.1981195513     -3.2373678694
C     -0.0265636131     -1.519869882     -3.4435904964
C     -2.2356526044     -0.5534752991     -2.9238243079
C     -0.5228453251     0.890553684     -3.6672493683
C     -0.9583142695     -0.5092290134     -3.6378413815
C     -1.4620925252     2.6542671564     -2.2095661619
C     -2.6164920578     2.4918264402     -1.3024133603
C     -3.296152323     1.2776698416     -1.6560970924
C     -1.6075074044     1.699150062     -3.2274816116
C     -2.6868887844     0.7817405745     -2.8069916616


