58

 C     1.5943451961     -0.2329693204     4.7194388459
C     0.7107607986     -1.3857474738     4.8840916901
C     1.2003174208     -2.4452901792     4.1511925369
C     2.5758461593     -0.6091018553     3.66913795
C     2.3462908918     -1.9506417151     3.3228531854
C     2.5306746394     0.3618177427     2.6030620456
C     0.8142262493     0.7435890064     4.1143166529
C     1.4754554015     1.293098017     2.9430911363
C     -0.6322347143     -1.0689751271     4.3469721845
C     -0.5850477104     0.2601661584     3.8918667495
C     0.184942694     -2.912281368     3.2339971336
C     -1.0020859735     -2.0743592333     3.3744538005
C     2.0636078753     -2.2935476597     1.9634580076
C     0.7575050734     -2.9733741     1.9421942038
C     2.5992031716     -0.0163880566     1.2344018288
C     2.3345194101     -1.4022186493     0.8808645179
C     2.221067437     0.9763140009     0.268174947
C     0.7382565067     1.9330527859     1.9540243644
C     1.3441396839     2.0470984038     0.6594588988
C     -1.2772059803     0.6727790341     2.712828711
C     -0.7350446801     1.7967665024     1.9560852991
C     -1.6953602804     -1.6969671335     2.2047209959
C     -2.0494691434     -0.2968220918     1.9602939938
C     -0.0554954735     -2.8962095701     0.7958853143
C     -1.4211314601     -2.4557660504     0.9844495478
C     1.7220128591     -1.6749653433     -0.4115482356
C     0.5879523656     -2.5646126761     -0.4620855846
C     2.2383036989     0.6164433826     -1.133872478
C     1.9211358381     -0.7354138852     -1.509198019
C     2.057576089     1.6801462824     -2.0752240332
C     0.6643131689     2.8214995322     -0.3622903934
C     1.2402128466     2.8678110575     -1.6588412158
C     -1.3939249213     2.1982743564     0.8056371922
C     -0.736263734     2.9578001504     -0.2486623288
C     -2.6195160357     0.0889665253     0.6714260856
C     -2.4324930236     1.4176145524     0.1953582382
C     -2.1548037894     -2.1427331432     -0.1645990928
C     -2.8413430807     -0.9033573096     -0.3240580065
C     -0.2361324006     -2.5278339858     -1.6151797244
C     -1.6490394324     -2.5081120856     -1.4579713563
C     1.2603364838     -0.9295275107     -2.8116299859
C     0.1076096338     -1.7756309362     -2.7975715151
C     1.8401763957     1.4325062872     -3.4259892437
C     1.2688487973     0.1254512061     -3.7807011584
C     0.4814257907     3.256074973     -2.7684023208
C     0.9759468157     2.502064893     -3.9288142092
C     -1.5404729377     2.8811980017     -1.4373115881
C     -2.4723172045     1.7747677812     -1.2089910763
C     -0.9720117102     3.1063561447     -2.6975820091
C     -2.8117161408     -0.5775555845     -1.7557680341
C     -2.1938808046     -1.6527261437     -2.4551502828
C     -1.1413622245     -1.3204149514     -3.3832609999
C     -2.649760773     0.7856458374     -2.2188134813
C     0.059641426     0.4324365101     -4.4937335904
C     -0.1083574954     1.8876329402     -4.5004876748
C     -1.3427629071     2.2194548004     -3.7850965554
C     -1.1684593993     -0.1184370618     -4.0720651695
C     -1.998957407     1.0051533047     -3.498836734


