58

 C     1.4884186336     -0.0064727482     3.9147513262
C     0.7073561811     -1.1858528102     3.8013949921
C     1.2537104553     -1.8920890141     2.6804352032
C     2.6301411372     -0.0289406359     3.0722463232
C     2.4506438972     -1.1719115442     2.226541851
C     2.6831414927     1.2574813835     2.4200128043
C     0.6759257932     1.1166214692     3.5541513341
C     1.3743974449     1.9128318515     2.5917703426
C     -0.6665757506     -0.7579941197     3.6902704866
C     -0.6742925005     0.6801655312     3.3686610297
C     -1.5145273902     -1.5662821876     3.0142071603
C     0.4137858874     -2.52881162     1.7267558853
C     -0.9612120117     -2.6495986083     2.1645045144
C     0.6815498242     -2.4580917294     0.2845702528
C     2.7547867844     -1.1202662544     0.8390166597
C     1.8840264855     -1.7345796874     -0.1714249867
C     3.2668472315     1.310599813     1.20104619
C     3.5230253545     0.0485015666     0.4640219965
C     2.8262322893     2.2707090028     0.2192689824
C     0.6886222215     2.4232614592     1.4649919361
C     1.4817351636     2.7523555363     0.2532678537
C     -1.4246598097     1.1517314094     2.2663765539
C     -0.7580736001     2.1141338301     1.3553593286
C     -2.6316752283     -1.0132340442     2.2889805173
C     -2.5582287616     0.3215697769     1.7852760228
C     -1.9435188129     -3.0156219724     1.2787699521
C     -3.0997297141     -2.0829445795     1.4586603718
C     -0.4120254814     -2.7214715474     -0.6540867782
C     -1.7044801008     -3.1246563035     -0.1195696978
C     -0.3967782027     -2.0728730964     -1.9758331194
C     1.9806212781     -1.2818510349     -1.5614106144
C     0.7915830246     -1.3578534909     -2.4264758594
C     3.6917863551     0.3750596955     -0.8582137633
C     3.4164854636     1.8377667882     -1.0123760961
C     2.9961870188     -0.2963339848     -1.9021255729
C     2.8285802469     2.0511799377     -2.2154803342
C     2.727238013     0.7255290441     -2.8865822873
C     0.8134951161     2.9583696061     -1.035940626
C     1.5246239213     2.686793443     -2.2750932573
C     -1.3620652741     2.3344033063     0.1121050202
C     -0.6062227137     2.7734548178     -1.0587872555
C     -3.1528878267     0.5718552585     0.4681652108
C     -2.5507087788     1.6034869812     -0.3214116924
C     -3.6832970443     -1.8669216326     0.2539114789
C     -2.9286632585     -2.6775448093     -0.74178829
C     -3.7933453662     -0.5129508289     -0.2584478492
C     -1.6567477225     -1.6987923413     -2.5686449142
C     -2.8806669932     -1.9391116186     -1.8879123968
C     -3.5443797101     -0.6306646098     -1.6546203939
C     -1.2846463434     2.2367240421     -2.1965830252
C     -2.472206617     1.5221857711     -1.7462439902
C     -1.7978627094     -0.3774140816     -3.1497332438
C     -2.8535170245     0.3305922932     -2.3922640976
C     0.6075511893     -0.3363968323     -3.4272972058
C     1.5441159616     0.7232157054     -3.5658495107
C     0.8337926382     2.0036187475     -3.3148830666
C     -0.6947792817     0.2862950339     -3.5680369918
C     -0.532632495     1.7270346666     -3.2723746937


