58

 C     1.2939549434     -0.1452360865     3.7105322226
C     2.4419788804     -0.4297256743     3.0246362115
C     2.380745831     -1.8182297781     2.5324179102
C     0.4326400793     -1.3663254855     3.6771712247
C     1.0945657923     -2.3618536396     2.8778676854
C     -0.8656059957     -0.9580711423     3.4228052772
C     0.4955557979     1.0023649743     3.4047222995
C     -0.8632950055     0.5370960399     3.4223532299
C     0.9186900176     1.9517135673     2.4091919701
C     2.8658185361     0.4291534591     1.9578575558
C     2.18550959     1.6749753327     1.7219720514
C     2.8224762561     -1.8037563683     1.2091228827
C     3.2212185337     -0.423484219     0.8633941949
C     2.1689799533     -2.616539277     0.2088332344
C     0.3536559213     -3.0151723566     1.8728471702
C     0.9389360208     -3.2358021556     0.568877832
C     -1.6649984028     -1.6590224955     2.4246280684
C     -1.032484153     -2.6707656268     1.667172996
C     -2.7033796262     -0.9175280572     1.766407002
C     -1.8424853513     1.2127633174     2.7322972372
C     -2.8636689844     0.4548760858     2.0652490598
C     -0.1473885863     2.6732513839     1.6733373449
C     -1.4966344696     2.3162181625     1.8640002958
C     0.1563013944     3.2775293075     0.3909246991
C     2.3649908193     2.20341573     0.4078247672
C     1.4299022792     3.1480023047     -0.1320452412
C     3.1369688597     0.0358946512     -0.4830375731
C     2.8149266651     1.4053194496     -0.6821048451
C     2.3366697434     -2.2129669657     -1.1657006169
C     2.7807057452     -0.9059907708     -1.4993912684
C     1.3630705665     -2.5867680336     -2.1560440781
C     -0.1600175159     -3.2585120181     -0.4020945961
C     -1.339628509     -2.8274078099     0.2373517967
C     0.0687355133     -2.9403867568     -1.7568518812
C     -3.037448857     -1.1042074621     0.358798001
C     -2.3030805069     -1.9953012264     -0.4498266324
C     -3.2769413337     1.1672104554     0.8994796884
C     -2.4446566351     2.2863179281     0.7275779618
C     -3.4645326168     0.2046644045     -0.1610180987
C     -0.7998431029     3.2742462788     -0.7545203586
C     -2.0788256764     2.6897907091     -0.6051072103
C     1.3380273812     2.9717555208     -1.574471347
C     2.0936947369     1.8545872601     -1.9075405667
C     -0.0333736058     3.0918327102     -1.9660545794
C     2.0507018155     -0.4649237281     -2.7245614025
C     1.2450355812     -1.529321508     -3.1332603547
C     1.6085070827     0.89858154     -2.8778631201
C     -0.9073130838     -2.1394551356     -2.5141366556
C     -2.0763119192     -1.6499207431     -1.8743593132
C     -0.14324715     -1.3106637764     -3.4332989884
C     -3.1902963369     0.5796241456     -1.4440228645
C     -2.6138217198     1.9131772884     -1.7092152862
C     -2.5936609304     -0.3926143984     -2.3672226014
C     -0.5122051091     2.243213645     -2.9805351921
C     0.3221520699     1.1312299614     -3.4561745767
C     -0.5631457269     -0.0104780095     -3.7210087674
C     -1.8432161797     1.7624848301     -2.8697672536
C     -1.8636093367     0.3591402513     -3.2984166008


