58

 C     1.2751603377     0.0404570145     4.6264323917
C     0.564176545     -1.1133673068     4.1328973953
C     1.4259197158     -1.9752579197     3.4233032014
C     2.5543374864     0.0118537298     3.9796837761
C     2.6979681204     -1.241473026     3.2798074083
C     2.7350036389     1.232447861     3.2398828647
C     0.5826440556     1.1730547714     4.0522027923
C     1.4727790168     1.9884693027     3.3249748114
C     -0.6382480702     -0.6998851921     3.4544212448
C     -0.6305435012     0.7517537942     3.3878743647
C     -1.1280016214     -1.4171317963     2.3437364296
C     1.0567315911     -2.4872643114     2.1520106444
C     -0.2637403549     -2.359674219     1.6399997328
C     3.064952312     -1.2811769667     1.9306586227
C     2.1178014938     -2.1809274809     1.223749769
C     3.1201286553     1.2062314119     1.8934089769
C     3.4268470234     -0.0562341978     1.236330505
C     1.1282989899     2.4391532926     2.0244400925
C     2.2279326567     2.1179781639     1.1513864533
C     -1.0890002638     1.3942087115     2.2036263702
C     -0.1899631591     2.2829531972     1.4841320231
C     -2.1311611311     -0.7468951296     1.5740836687
C     -2.0958928782     0.6956063305     1.4395241654
C     -2.6881156075     -1.5013857718     0.5233738947
C     -0.4858188116     -2.565716462     0.2122352567
C     -1.7924222408     -2.3679783306     -0.2517680351
C     1.9212247006     -2.1419486422     -0.1735874229
C     0.6057212961     -2.4415406241     -0.7516535663
C     3.3225977343     -0.0787304247     -0.1527866144
C     2.7958024953     -1.245996667     -0.8781458382
C     2.0671297608     2.0489959252     -0.2353778147
C     2.8887698267     1.0776573279     -0.9101062316
C     -0.3825469795     2.4332714306     0.0546190299
C     0.7729759164     2.3859448971     -0.8288482835
C     -2.6144514667     1.2920678816     0.2382682831
C     -1.7161412064     2.2056951387     -0.4896830411
C     -3.5589525385     -0.8942130964     -0.3617694775
C     -3.5727989122     0.5269651818     -0.5175373682
C     -2.1522992811     -2.2432155056     -1.6458794372
C     -3.388859618     -1.5047706728     -1.6895360297
C     0.2780860474     -2.0527229099     -2.1194685401
C     -1.1202901309     -1.9573541077     -2.5981205087
C     2.4447417366     -0.8476671525     -2.1595913322
C     2.5175082927     0.6364939591     -2.1930810554
C     1.2496253546     -1.2249165797     -2.785750751
C     0.5513178751     2.0971593291     -2.2314485007
C     1.4254665461     1.1224433587     -2.8769064424
C     0.7822568927     -0.0489917978     -3.5238536425
C     -1.8951958809     2.341906469     -1.8950888679
C     -0.7516566917     2.1895061296     -2.750316773
C     -3.7747897303     0.7682486487     -1.9169604467
C     -3.6531917389     -0.5534391222     -2.6535978465
C     -3.0137872672     1.7021346829     -2.5854259092
C     -1.4621431211     -1.0252839975     -3.6679584368
C     -0.4850678747     0.0321950179     -3.9826596526
C     -1.1609435608     1.3313717072     -3.883445256
C     -2.7287382729     -0.36662533     -3.699314581
C     -2.5091441924     1.0955601047     -3.8173964555


