58

 C     1.2694910397     0.0814123249     4.0047534352
C     2.465205063     -0.0670184896     3.3039859932
C     2.5391151005     -1.4347123509     2.8159381705
C     0.4691509746     -1.1160099838     3.7813004386
C     1.2308353546     -2.0153418925     2.9780595695
C     -0.8100345335     -0.6794938931     3.3266021484
C     0.45915641     1.2111075402     3.7316151375
C     -0.8640947635     0.7603593917     3.496778017
C     0.7775279808     2.1242077204     2.6525407468
C     2.7875658306     0.7963324179     2.1931051019
C     1.9105807165     1.907415389     1.8173084152
C     3.1879852592     -1.4441671381     1.5598317212
C     3.3857824992     -0.0290795341     1.1692878235
C     2.8039601797     -2.373012154     0.6138865568
C     0.6282076026     -2.6924819142     1.8680900123
C     1.5329147087     -3.0826103551     0.8197067626
C     -1.4407533548     -1.2713186278     2.1810405351
C     -0.7690107006     -2.3771865678     1.4957207845
C     -2.443062883     -0.4434551456     1.4561044442
C     -1.4609902755     1.5784402027     2.4996248273
C     -0.4806923159     2.5226664909     2.0362837788
C     -2.4172189476     1.0403500967     1.6167515301
C     -0.5713379197     3.0442499313     0.7332193945
C     1.7971436106     2.2758162371     0.3920679991
C     0.6132561785     2.9810175711     -0.1227065706
C     3.2606578348     0.3219407015     -0.1608484253
C     2.5527144628     1.5171117463     -0.5421272431
C     2.8642622613     -2.0302913093     -0.814767074
C     3.064634026     -0.6910093418     -1.2079958351
C     1.0317540756     -3.36858315     -0.4608122468
C     1.8771660697     -2.7594033756     -1.4961468612
C     -1.2453550228     -2.7424435344     0.1704158091
C     -0.3160293419     -3.2346302826     -0.8127023339
C     -2.9950986588     -0.9413002005     0.2801956041
C     -2.4039537197     -2.0977195661     -0.3563590304
C     -3.5261203057     -0.046221744     -0.7883208707
C     -2.7556982384     1.8791745938     0.5351920568
C     -1.8806494807     2.9504935826     0.1405568076
C     -3.403069272     1.3471754594     -0.6704029741
C     -2.0451866679     3.1111406187     -1.2716018488
C     -2.9910568772     2.1119186409     -1.7846152656
C     0.3778449815     2.9789291518     -1.537042078
C     -0.9363568448     3.133955179     -2.0879104442
C     2.0685249178     1.2798186689     -1.8802658536
C     2.2596679928     -0.1208043315     -2.2393506828
C     1.0274443783     2.0107019211     -2.3793681763
C     1.0339594281     -2.1988645401     -2.4759231801
C     -0.3133991347     -2.667828572     -2.1654654687
C     1.1954443825     -0.8362535668     -2.8953077837
C     -2.5189136161     -1.8732508477     -1.7547338339
C     -3.2030554569     -0.6326201923     -2.0289356249
C     -1.4075841748     -1.9809481556     -2.6316757911
C     -2.4185011019     1.4868243042     -2.9460121468
C     -1.1424952629     2.1170176136     -3.1539557028
C     0.0265635659     1.3717871572     -3.2609362215
C     0.0110634783     -0.081880915     -3.3680582284
C     -2.4800963703     0.0815250249     -3.0466713084
C     -1.2697651225     -0.6929479861     -3.3289445666


