58

 C     1.6084047054     0.0360556089     4.2574246481
C     0.8151323903     -1.1682589818     4.2880188074
C     1.4655611583     -2.1743644371     3.5422653941
C     2.602195059     -0.1645869081     3.2311955003
C     2.5683527601     -1.5104113602     2.8176103497
C     2.4742510617     0.8594057363     2.2129516688
C     0.7588231438     1.0555703732     3.7451358622
C     1.386873454     1.7066522488     2.6269962077
C     -0.564901739     -0.8286545475     3.9286282262
C     -0.5848584538     0.580983465     3.5527191916
C     -1.3147753356     -1.7128383699     3.1722766148
C     0.7358221258     -2.9586276842     2.61391392
C     -0.6800323017     -2.9063173567     2.6111976357
C     2.4380499128     -1.8311313422     1.442951359
C     1.4097947124     -2.8447822605     1.3140591022
C     2.5877941498     0.5691018418     0.8200365431
C     2.5633766368     -0.822646102     0.4051052812
C     2.1256646335     1.5919413294     -0.1061256559
C     0.6090470774     2.3757893286     1.6814441795
C     1.230759092     2.6169952301     0.4031909346
C     -1.3553694569     1.0672893442     2.4456244482
C     -0.8347640277     2.1956862557     1.7156240078
C     -2.2439788198     -1.1967270819     2.1460789687
C     -2.2389304279     0.1571236405     1.7160707073
C     -1.3392617203     -3.1770452485     1.3866542168
C     -2.3753693123     -2.1909128108     1.1548290758
C     0.7367577476     -3.0183728786     0.0897249391
C     -0.6692349439     -3.334782011     0.1549797106
C     2.0975751408     -1.1354534584     -0.9216311519
C     1.2353492396     -2.3023151897     -1.0821554688
C     2.1334061333     1.318441366     -1.5281572979
C     2.1178030604     -0.0831126369     -1.9531786265
C     1.5787714576     2.3384670783     -2.4166556272
C     0.4920934177     3.4210549701     -0.505671714
C     0.7780602047     3.3655777123     -1.8854654625
C     -1.549026716     2.6355970448     0.5806322426
C     -0.9307738434     3.4650415109     -0.3553377244
C     -2.6250507895     0.4467401153     0.3033007
C     -2.4170471612     1.7365868371     -0.171261914
C     -2.5139433298     -1.9283901227     -0.2391230232
C     -1.5519374677     -2.8092300682     -0.8810090234
C     -2.6949790116     -0.6178021557     -0.7221147952
C     0.4205002939     -2.3476077443     -2.2416729691
C     -1.042367033     -2.4435022889     -2.0788417529
C     1.537689755     -0.3909905371     -3.2363739569
C     0.6526314383     -1.4896052763     -3.3091531912
C     0.9519574488     1.9489309729     -3.6732536887
C     0.9239369186     0.6464188657     -4.052549437
C     -0.5196788039     3.3819993238     -2.6359345973
C     -1.5361723244     3.2648402569     -1.6783763335
C     -2.3271218363     2.0866803738     -1.6062758281
C     -0.4434902124     2.4829051313     -3.6800402118
C     -2.350575309     -0.3269696509     -2.1342865826
C     -1.6310164447     -1.3478106891     -2.826087194
C     -0.6563797642     -0.9897270837     -3.8154681836
C     -0.5067818144     0.2814842733     -4.2684710416
C     -2.2106871249     1.0658564878     -2.6129783531
C     -1.3279287539     1.3537595203     -3.7429896469


