58

 C     1.4533792802     0.0892062956     4.2344816953
C     0.654638375     -1.0973901171     4.0242220974
C     1.4122913862     -1.9951574546     3.2622399164
C     2.6139904041     -0.011960113     3.3247516869
C     2.611588251     -1.2693934975     2.7550934415
C     2.6295415682     1.107436761     2.4144757149
C     0.7107026234     1.1421901219     3.7064144703
C     1.4874222112     1.9194705575     2.7574438056
C     -0.6479052633     -0.7142584909     3.4733890684
C     -0.6200440702     0.7130587687     3.2822797068
C     -1.3086401126     -1.5238160906     2.5224833052
C     0.840772899     -2.6937097341     2.1910195567
C     -0.5690378242     -2.6644534041     1.9811506834
C     2.662937054     -1.4797838665     1.329433546
C     1.6783291645     -2.4826063616     1.0165559564
C     2.9305731481     0.9321049243     1.0167752062
C     2.8718314906     -0.4076541053     0.4119488816
C     2.5805377286     2.0360451676     0.2162201107
C     0.8397311874     2.7151889025     1.8110639405
C     1.6665273733     3.0386713648     0.6810174346
C     -1.2513649654     1.3402124145     2.1797023131
C     -0.6034626217     2.526012434     1.5830304436
C     -2.2907119587     -0.8775635246     1.6435722981
C     -2.1982838365     0.5539289868     1.3977396619
C     -2.9062699788     -1.7046892406     0.6477748614
C     -0.9858475257     -3.201804414     0.7433739563
C     -2.2742441061     -2.9220092499     0.2664629536
C     1.1889792546     -2.6545151368     -0.2989890343
C     -0.0874941269     -3.2800411365     -0.4047802767
C     2.4234053843     -0.5662417438     -0.9808733594
C     1.6718050122     -1.7666479777     -1.3499179771
C     2.4369085405     1.9244940042     -1.2378502548
C     2.3170872165     0.6167731884     -1.8339631676
C     1.0968586363     3.6238122412     -0.4713514739
C     1.6518102713     3.0028164034     -1.6902085854
C     -1.1164483846     3.0100235063     0.3618000065
C     -0.2740386184     3.6860011964     -0.5980278509
C     -2.6296387864     1.0677300276     0.088960777
C     -2.0658204616     2.2479934306     -0.4020822201
C     -3.4372807302     -1.1437828403     -0.5729969169
C     -3.1713368856     0.1675233611     -0.9092312561
C     -2.2607648893     -3.0105924735     -1.2016214263
C     -0.8800060177     -3.1740897921     -1.6081843966
C     -3.0170986771     -1.9807636885     -1.7103819364
C     0.9311569836     -1.787650118     -2.5788931039
C     -0.3948205874     -2.4237191396     -2.6705221215
C     1.5104879431     0.5619011998     -3.0208732712
C     0.9193635559     -0.6607576507     -3.4139497962
C     0.5792190908     2.794071388     -2.6100767393
C     -0.642740525     3.2506385726     -1.9466616664
C     -1.72716272     2.3948766701     -1.8473340351
C     0.5483928985     1.6140197754     -3.3325227011
C     -2.7143675788     0.2284916295     -2.3323335721
C     -2.5126349939     -1.1346963437     -2.7590860338
C     -1.2771040278     -1.4715562039     -3.3646065013
C     -0.4529967455     -0.4184162715     -3.8350491501
C     -1.872018715     1.2719688     -2.7551223456
C     -0.7306831976     0.9430580971     -3.5873863763


