58

 C     1.1198412231     -0.06640683     3.9415289617
C     2.2425770375     -0.3893035735     3.2411957677
C     2.1576194339     -1.8080266482     2.7912152067
C     0.2422056826     -1.2833517185     3.9111559541
C     0.8396089651     -2.27532301     3.0381811995
C     -1.0249098619     -0.8406804425     3.6890823521
C     0.3336163034     1.0768524277     3.5490196217
C     -1.0253978474     0.6336981254     3.6064211538
C     0.7432257367     1.9099934776     2.4476171442
C     2.7190596823     0.4038356531     2.1462749986
C     1.982431736     1.5596668105     1.7271110972
C     2.7679597588     -1.8903722074     1.5400882285
C     3.1994239197     -0.5336337666     1.158615684
C     2.1584387183     -2.6924770391     0.5531205613
C     0.0717530306     -2.8315211099     1.9414415217
C     0.8149080371     -3.1670368245     0.7602626329
C     -1.8414661449     -1.3518505163     2.6100635769
C     -1.3218160221     -2.3685932722     1.7434922606
C     -1.9463990727     1.000953322     2.6365342033
C     -2.5250902785     -0.2251623731     2.0561824061
C     -0.3156590313     2.6056588395     1.7121449345
C     -1.6977172292     2.1302647911     1.8072082803
C     0.0493795364     3.2675463556     0.4939686702
C     2.1292491474     1.948140825     0.3163428608
C     1.1989837058     2.8564549147     -0.2362809179
C     3.251529075     -0.1993576852     -0.185333796
C     2.7828168812     1.076703403     -0.6133218092
C     2.3377919823     -2.3830273922     -0.8509598569
C     2.9365277149     -1.1755856325     -1.2230361587
C     0.1951514071     -3.2550464819     -0.5541957915
C     1.1618162595     -2.8428272519     -1.569617837
C     -1.8756175627     -2.3953288333     0.4197076479
C     -1.1387223093     -2.9213338841     -0.7176446222
C     -2.9973850935     -0.2168581312     0.7151071805
C     -2.7241020573     -1.3662414883     -0.0795299014
C     -2.559207527     2.2251857408     0.664653722
C     -3.1182840127     1.0454798086     0.0758508574
C     -0.943004611     3.5972806123     -0.4936956985
C     -2.2108488318     3.0768387506     -0.4224060658
C     0.8728559681     2.8502857554     -1.6904276029
C     -0.4143279787     3.3462218365     -1.8445375934
C     2.3585828896     0.9500347677     -2.0101870693
C     2.450977539     -0.4464199178     -2.3663412064
C     1.3549037112     1.7903376909     -2.5513908872
C     0.7480129465     -2.208779413     -2.7277883793
C     1.4634787071     -1.0133686643     -3.200693816
C     -1.5881422616     -2.249493276     -1.9219059168
C     -2.5450634817     -1.2531381247     -1.5339138687
C     -0.6803362455     -1.9760669113     -2.9631307732
C     -3.0177151802     1.1576713634     -1.3984769966
C     -2.5389237959     2.4295881643     -1.7080464493
C     -1.4107256675     2.598377959     -2.5923227541
C     -2.6300792386     0.0046739351     -2.1931120594
C     0.4187264733     1.2198549154     -3.4937711575
C     0.5183354608     -0.1605723987     -3.8052197661
C     -0.8086602117     -0.7595166729     -3.6737210372
C     -1.004295404     1.532570803     -3.3802917932
C     -1.7178917218     0.2525304327     -3.2922871144


