58

 C     1.3805525923     -0.0790708546     4.0883120563
C     2.5582273304     -0.3515843413     3.4220491376
C     2.3695603581     -1.6042289574     2.6385806208
C     0.4968918305     -1.2614357693     3.9226280687
C     1.0624770659     -2.1074097107     2.8830435171
C     -0.7831057183     -0.810335977     3.7799773042
C     0.612058671     1.1080690682     3.7622161428
C     -0.7483205394     0.6798947972     3.713596598
C     1.0679202985     2.0241963191     2.7480734034
C     3.1175327456     0.6113396103     2.5611122049
C     2.4060185135     1.7841717601     2.2278305594
C     2.868476433     -1.381744234     1.3296387881
C     3.4503195096     -0.0723368768     1.2985404739
C     2.1427825765     -1.8471885839     0.1923543379
C     0.2606513031     -2.5316935716     1.7797220764
C     0.9279367969     -2.6170220906     0.4589432782
C     -1.6533733131     -1.298547721     2.7696313847
C     -1.1749471777     -2.237805685     1.793177444
C     -1.6429610584     1.0688957963     2.7226183554
C     -2.3572075022     -0.1404665985     2.2761452292
C     0.0670174106     2.5935862931     1.817738867
C     -1.2953866604     2.0795981853     1.7574849082
C     0.5553455548     3.1998350656     0.6075981607
C     2.6737599394     2.0055179529     0.8022000848
C     3.2230383616     0.7681466878     0.2171455359
C     1.8555975112     2.7888445116     0.0635185498
C     2.2620490045     -1.1261122105     -1.0705811944
C     2.711665217     0.2652540617     -1.0152500493
C     1.4886132408     -1.5824161953     -2.214930254
C     0.1639964081     -2.9773885594     -0.647428166
C     0.5485079657     -2.6584976896     -1.9936749859
C     -1.9330291759     -2.3423238687     0.5530075485
C     -1.3090984016     -2.9947151635     -0.571008969
C     -2.9533796385     -0.1673018018     1.0437317791
C     -2.9203070379     -1.3703478687     0.2393028784
C     -2.0583057689     2.0846868829     0.4899512598
C     -2.8940771149     0.9654509118     0.1717319
C     -0.2660782395     3.3779208215     -0.5053628989
C     -1.5454579274     2.7874879617     -0.6343549296
C     1.6993741715     2.5162130548     -1.3650010026
C     2.1129665147     1.2342667867     -1.9250872373
C     0.4793585631     3.0921554376     -1.7401132922
C     1.2027993608     -0.6594253622     -3.282490623
C     1.3839238445     0.7644258238     -3.0306799406
C     0.0042038421     -0.7987392472     -4.0575581812
C     -0.6486917378     -2.7431508834     -2.7832608666
C     -1.795289544     -2.8364616603     -1.8592836855
C     -0.9311819319     -1.7982287533     -3.74822572
C     -3.1948474945     -0.9764544348     -1.1217798418
C     -3.0721943199     0.4670567086     -1.1825247908
C     -2.7166630982     -1.7662151184     -2.1852866588
C     -2.2169689045     -1.1301351709     -3.3563064767
C     -1.6692488657     2.2637234195     -1.9957726599
C     -0.380121465     2.4542251289     -2.6510898134
C     0.1595133032     1.4422989553     -3.4761306448
C     -0.6973429946     0.4686320739     -3.9985631293
C     -2.4390602062     1.1080613708     -2.298219102
C     -2.0164903825     0.2648295026     -3.4216373399


