58

 C     1.5180818716     -0.2776391608     4.4588948522
C     0.7254312531     -1.3935206762     4.317205341
C     1.3031841452     -2.3442755947     3.3694537863
C     2.6419818847     -0.4285562699     3.5224141514
C     2.5414265542     -1.746563981     2.8808984895
C     2.6542624318     0.7006757791     2.7050439627
C     0.7317585738     0.8795165316     4.0828103599
C     1.4358429201     1.5111502584     3.0584594845
C     -0.6166619137     -1.0282480576     3.8904738294
C     -0.6228009675     0.390776878     3.6963495182
C     0.2925840082     -2.664458164     2.4539323364
C     -0.9262092328     -1.850693584     2.7852195368
C     0.5916907149     -2.8961453368     1.0675947805
C     2.8032311607     -1.8393402482     1.5218182533
C     1.9150924687     -2.5920753633     0.6510216164
C     3.0368389475     0.6204104527     1.3155743709
C     3.2043483084     -0.670555122     0.7404719352
C     2.5850604155     1.6478084431     0.4447537503
C     0.7561843327     2.2464105896     2.0359378325
C     1.4824508026     2.5351253692     0.8646008809
C     -1.2949304064     0.9321972901     2.582961081
C     -0.6999005244     2.0973928789     1.9106148394
C     -1.7380924755     -1.3723319308     1.7490013581
C     -2.0750452269     0.0441628686     1.7322168344
C     -0.4884637986     -2.8063183666     0.0944221259
C     -1.7225126583     -2.0997494554     0.4751150789
C     -0.151613165     -2.7915742398     -1.2787968739
C     2.1345097176     -2.1417673566     -0.7006846627
C     2.8623174095     -0.8914592023     -0.6434479383
C     1.1734766784     -2.3393267839     -1.6629055848
C     2.4626899998     1.4684335282     -0.9559754421
C     2.5183408245     0.1542346129     -1.5404360891
C     0.835633831     3.0264996275     -0.3090217435
C     1.498822457     2.439767553     -1.4612146183
C     -1.3125190344     2.5803113492     0.7535934049
C     -0.5536998768     3.1576197509     -0.3297877032
C     -2.7475881733     0.5790103877     0.5689207924
C     -2.4446956533     1.902561473     0.143069859
C     -2.5878666474     -1.6693297275     -0.5238730888
C     -3.219736474     -0.3363486265     -0.4363948611
C     -1.063748374     -2.3533875158     -2.2972323335
C     -2.3449780524     -1.9312464354     -1.9257369722
C     1.0228202222     -1.4182503174     -2.7692540312
C     1.6572441678     -0.1398518315     -2.7002394786
C     -0.317211754     -1.5800386398     -3.2973175233
C     0.8057356164     2.2274578907     -2.6240560652
C     0.946649876     0.9465023021     -3.3395037598
C     -1.2881358309     2.9821421241     -1.5685308586
C     -2.5355336196     2.2853251207     -1.2530480922
C     -0.5908402257     2.6594706677     -2.7417473739
C     -3.5133667988     0.1064532651     -1.7299119615
C     -2.9803822702     -0.8824607595     -2.6792834268
C     -3.1157829801     1.4118790438     -2.1882626086
C     -0.9395533182     -0.5352455973     -3.9947296362
C     -0.2454493963     0.7208905369     -4.0429132692
C     -1.2103633868     1.7822920925     -3.6928677534
C     -2.3350436008     -0.2342694489     -3.7165319465
C     -2.4549657277     1.2185491283     -3.4691387457


