58

 C     1.3592419864     0.1140381074     4.3571393419
C     0.6019976395     -1.0272598333     4.0524862519
C     1.4401109951     -1.949241217     3.3489042817
C     2.5723489279     0.0616052975     3.4923566522
C     2.6590309686     -1.1958804454     2.9182258832
C     2.6162310828     1.2144448831     2.6522487692
C     0.640667212     1.2489857629     3.9127412402
C     1.4835761298     2.0551637686     3.0795125788
C     -0.6618132559     -0.5893790237     3.4123840667
C     -0.6435291101     0.8633070511     3.3701444536
C     -1.2081513608     -1.3026869501     2.3421161345
C     0.9467659977     -2.6117822646     2.2539923033
C     -0.4583279057     -2.4960297222     1.8856929529
C     2.777863818     -1.3582381909     1.5022555573
C     1.90057005     -2.4281171459     1.1393312277
C     2.8594425176     1.0859331093     1.2329655237
C     2.8789194816     -0.2375608442     0.5996597053
C     2.4278476593     2.1844635135     0.4219360497
C     0.8737352624     2.9139246477     2.1918711267
C     1.5633692686     3.199643465     0.9745781598
C     -1.2111674049     1.5741551942     2.2722712543
C     -0.5304243143     2.7681065221     1.847655479
C     -2.0483644369     -0.5980631799     1.3454639092
C     -2.0262939304     0.8446991312     1.29580022
C     -2.5257885221     -1.3580724366     0.1888494639
C     -0.7616866723     -3.0561694816     0.6699308634
C     -1.9365254529     -2.6611081154     -0.0945079431
C     1.5291669438     -2.6855783582     -0.1686505967
C     0.2873310008     -3.413970593     -0.2909479502
C     2.4138566258     -0.4158927851     -0.7841461325
C     1.8959619353     -1.7169773513     -1.2085248512
C     2.0844546832     2.0253580229     -0.9601861246
C     2.0379501038     0.7534158307     -1.5868570716
C     0.6338889591     3.6054877636     -0.0029547822
C     -0.6686291738     3.2394344406     0.5006486141
C     1.0363902355     3.024810947     -1.2461026436
C     -2.4139311274     1.5284196192     0.047998286
C     -1.6530631058     2.7110558563     -0.3788330948
C     -3.0822493979     -0.6782522883     -0.9122649739
C     -3.0702002161     0.7716758648     -0.9580290563
C     -2.9231513097     -1.1854289365     -2.2946420228
C     -1.7662355267     -3.124384825     -1.4039563621
C     -0.3278153116     -3.5088566091     -1.5257782306
C     -2.1209013728     -2.3353919087     -2.5254734613
C     1.2135570757     -1.8413962347     -2.4561665829
C     0.1851177277     -2.8195628662     -2.6240026368
C     -0.9334381984     -2.1981744846     -3.3420516425
C     1.1602419288     0.6124904368     -2.7757215153
C     0.7985996409     -0.6689139746     -3.2126969203
C     -0.5322123155     -0.9417950116     -3.8085980337
C     0.072577504     2.7859762948     -2.1717075204
C     -1.3503464448     2.8539182568     -1.7784563909
C     0.2120445613     1.6822943083     -3.100584087
C     -2.9647006466     1.1429818905     -2.343141703
C     -2.739062343     -0.0714243089     -3.1267034474
C     -1.505894003     0.0958065577     -3.8659705929
C     -2.0386928972     2.0996267823     -2.7306927189
C     -1.0602621663     1.4143660708     -3.6308112408


