58

 C     1.5295360981     -0.1318803488     4.0561258789
C     0.7446196241     -1.2929209817     4.0636329861
C     1.3803591103     -2.2796716947     3.1911632187
C     2.5941692209     -0.2666780384     3.1172317116
C     2.5483763964     -1.6056515493     2.593481823
C     2.5279345457     0.8402183154     2.2080715831
C     0.7035010138     0.986797836     3.6344594331
C     1.342581049     1.6378666189     2.531434422
C     -0.6398477957     -0.8969050699     3.8294367468
C     -0.6388477498     0.5631023633     3.531478174
C     -1.4344816329     -1.7343838108     3.0690909912
C     0.5552300829     -3.0578270516     2.3772276898
C     -0.8699049444     -2.91778087     2.4680215852
C     0.8768481631     -3.246075704     0.9395882507
C     2.8388018959     -1.777553229     1.239020526
C     2.0083641396     -2.6616585915     0.4090956297
C     2.8734515811     0.6865737031     0.8476499489
C     3.1685499439     -0.6514578022     0.4129060951
C     2.3368293874     1.6442792375     -0.1230881632
C     0.5690135676     2.2428139062     1.5204617867
C     1.1739368226     2.4284694753     0.1849332639
C     -1.4519940357     1.1230545431     2.5180353314
C     -0.8729708453     2.1436681805     1.6444948805
C     -2.3632797488     -1.1371398478     2.0950330024
C     -2.5014139226     0.2685766159     1.9383765062
C     -1.3797033054     -2.948749937     1.1392831604
C     -0.3476976953     -3.1595733245     0.166796551
C     -2.3929052105     -1.9680844947     0.9287215153
C     -0.43207513     -2.5344231446     -1.1040538245
C     1.974199779     -2.1440147201     -0.9368036063
C     2.8703158977     -1.0025606975     -0.9575489277
C     0.8130778055     -2.1228502189     -1.7552240976
C     2.6187126717     1.3646894877     -1.5136891629
C     2.7460529944     -0.0503432867     -1.9169917388
C     1.9710669372     2.0178725438     -2.5406141032
C     0.351362319     2.968574361     -0.9146995991
C     0.8053731804     2.826812242     -2.2938837924
C     -1.6549140196     2.5934251584     0.5401035088
C     -1.0472587943     3.0637335939     -0.7168396491
C     -3.1264042058     0.6805768704     0.7456860433
C     -2.8816588755     1.9946670818     0.2341398829
C     -2.6151879581     -1.4465891882     -0.3718848907
C     -1.6807215661     -1.8282213727     -1.4665007719
C     -3.2552885625     -0.1899375905     -0.4083038741
C     -1.6841776981     -1.056672162     -2.6293238906
C     0.7951660568     -1.2150091798     -2.9096343674
C     1.8739832445     -0.2642803144     -3.0531105324
C     1.6211397934     1.0306300794     -3.5865830406
C     -0.4815115942     -0.8385172004     -3.4485744607
C     -0.1190245589     2.5639656069     -3.3427887276
C     0.3783291372     1.3737037664     -4.0904490919
C     -0.6503512554     0.4156783032     -4.1018257199
C     -1.9819495775     2.7661800119     -1.7978629054
C     -3.0132201434     1.984450604     -1.2064305846
C     -3.1936871897     0.6337332554     -1.598350043
C     -2.5302887844     0.146089302     -2.75136319
C     -1.4958163232     2.3772597872     -3.0698922879
C     -1.8542993161     1.0599485809     -3.5688670934


