58

 C     1.5021690271     -0.0928100599     4.1057610063
C     0.7178953089     -1.247697606     4.0053769171
C     1.3585326225     -2.1719069132     3.0733596255
C     2.5443206267     -0.1886592525     3.1425182466
C     2.444574042     -1.4526001696     2.4320984873
C     2.5825504671     1.0305672323     2.4019152482
C     0.6717595694     1.0430533654     3.6846073458
C     1.3548632417     1.8021851109     2.7137433942
C     -0.6584113081     -0.8520019876     3.7364211974
C     -0.6497454652     0.5885413224     3.4196079957
C     -1.4591143056     -1.7163898995     3.0170978338
C     0.541784098     -2.9932299646     2.3099487755
C     -0.8828212394     -2.9165837018     2.4869715121
C     0.7802260164     -3.1588465594     0.869619042
C     2.5753749083     -1.473275904     1.0027338497
C     1.7229117295     -2.3550196559     0.178998989
C     2.993776634     0.9762870325     1.0898893154
C     3.0453690525     -0.2820009481     0.369743322
C     2.5792231902     2.0102895406     0.1872194237
C     0.6455943408     2.4361677291     1.6645310709
C     1.4370233801     2.8182341343     0.4864189521
C     -1.3661334177     1.0886596511     2.2920689603
C     -0.7705216499     2.1518950028     1.4916599999
C     -2.3673139918     -1.1902979829     1.9883725094
C     -2.3364005408     0.1799800448     1.6466726575
C     -1.516006935     -3.1753425457     1.2364266935
C     -0.5055766886     -3.4812267362     0.2581652211
C     -2.5032460843     -2.1982926837     0.9464991249
C     -0.7486825516     -3.1791517872     -1.0498029817
C     1.4570143635     -2.0271948756     -1.24898423
C     0.3038821137     -2.6138907174     -1.8635907414
C     2.7562883853     0.0334508484     -0.9973577623
C     2.7263180115     1.4823052895     -1.1424537414
C     1.9701535317     -0.80245559     -1.8516326727
C     2.089998077     2.1028501379     -2.1980155038
C     0.7799929001     3.4110694721     -0.6124147245
C     1.3190222539     3.2849585267     -1.9341811195
C     -1.404677927     2.5434280806     0.2246463541
C     -0.6819201849     3.3349231782     -0.7090258942
C     -2.8222791939     0.5164482947     0.337408661
C     -2.4784085943     1.7332217226     -0.2967145412
C     -2.7765393175     -1.8538574657     -0.4107391557
C     -2.0346249241     -2.5473569929     -1.441190033
C     -3.1292458524     -0.4998808384     -0.6695079933
C     -0.3516325486     -1.9412881124     -2.9208486035
C     -1.800629415     -1.907289473     -2.6542984523
C     1.2799282803     -0.1380281289     -2.9834314081
C     1.3996422849     1.275392046     -3.1964769253
C     0.0574248276     -0.7276833512     -3.4684576493
C     0.2217058161     3.2506943462     -2.84249531
C     -0.9920184477     3.2572338133     -2.1170017434
C     0.2607668438     2.0343217201     -3.6086067687
C     -2.6303336741     1.522013184     -1.7367962116
C     -2.9297656927     0.1076887414     -1.9499088793
C     -2.250114187     -0.5964823772     -2.9626444627
C     -1.1586087231     0.0868847333     -3.6668023052
C     -1.8557185137     2.2200914685     -2.6364218313
C     -1.0595946104     1.4579065008     -3.6307000965


