58

 C     1.269581756     -0.1388130537     3.6195239064
C     2.4454483558     -0.5053908196     3.0145611432
C     2.3776781129     -1.9348309961     2.6688050146
C     0.4030227818     -1.339051075     3.6869188539
C     1.083401757     -2.4458813217     3.0701799774
C     -0.8718715089     -0.9509917617     3.2961372354
C     0.4982434273     0.9673651962     3.1231765807
C     -0.8658637619     0.5183772453     3.0561117369
C     1.0183031657     1.8602330488     2.1444589354
C     2.9300972151     0.2498004739     1.8997515881
C     2.3262486757     1.5070932138     1.5711784305
C     2.836365226     -2.0345099429     1.3455564268
C     3.2321569643     -0.6855695063     0.8580790234
C     2.1549288553     -2.8915192234     0.4482882598
C     0.3644383216     -3.2357108552     2.1365069833
C     1.0168555755     -3.5749318194     0.8969165646
C     -1.6324948301     -1.7798181112     2.3830106733
C     -0.9930780948     -2.8949329674     1.7920889983
C     -2.6520633002     -1.1334471051     1.6470502467
C     -1.8078767289     1.1297812828     2.226864212
C     -2.887340071     0.2728184756     1.7573588642
C     0.0472616625     2.6045820643     1.3332195033
C     -1.372458464     2.2788936184     1.4033810504
C     0.5272090504     3.2538682757     0.1449830623
C     2.6335433021     1.9630265491     0.2697988852
C     1.8172660958     2.9598053816     -0.3357773082
C     3.1344410818     -0.325436414     -0.5121925935
C     3.0345439754     1.0656430199     -0.7762357984
C     1.9294464303     -2.4651670413     -0.9574232132
C     2.4754463593     -1.2596449154     -1.4604133185
C     0.0439316382     -3.5189455719     -0.1805244865
C     -1.1767175394     -3.0947013564     0.3171853607
C     0.6060562973     -2.8766270784     -1.3265225431
C     -2.991433424     -1.5030146997     0.2581687926
C     -2.0354094721     -2.2626002311     -0.4837772049
C     -3.6647232956     0.6592458798     0.6323124738
C     -3.6728935778     -0.4329336605     -0.3247363947
C     -2.1923392966     2.6188309646     0.2752104779
C     -3.319324244     1.806787198     -0.0700769924
C     -0.3021888398     3.4231772282     -1.0506685494
C     -1.6290533002     3.0924755678     -0.9810425115
C     1.8115343156     2.8165867555     -1.7723308845
C     2.4954623918     1.5919367685     -2.0453657168
C     0.4969041307     3.0830672299     -2.2443416057
C     1.8312802809     -0.7216702453     -2.6071625395
C     1.9243134561     0.703004269     -2.961056013
C     -0.2123256312     -2.0853317457     -2.1801762254
C     -1.5898842651     -1.7774641909     -1.7946119876
C     0.5178824765     -1.1703909113     -2.9893167438
C     -3.2711456651     0.0820036097     -1.604920762
C     -3.263590763     1.5124596683     -1.4973787102
C     -2.2553025636     2.307605039     -2.0756742903
C     -2.2235169663     -0.5669585597     -2.3523819693
C     -0.0630161786     2.2094154281     -3.1998247409
C     0.7149994096     1.0796865478     -3.6177251011
C     -0.1476123725     -0.065058299     -3.5919955403
C     -1.443951866     1.7598702601     -3.0619432701
C     -1.4608165435     0.2939031895     -3.2211862561


