58

 C     1.4125287461     0.0616406749     4.1024689646
C     0.6522615889     -1.0862204364     3.8473192399
C     1.3906199869     -2.0276195296     3.0257165378
C     2.6060136926     -0.0368853005     3.2814267195
C     2.6603306588     -1.3735777327     2.7215229379
C     2.6161569503     1.0448696726     2.3897154721
C     0.6307233767     1.163490532     3.6249059097
C     1.3742174148     1.8447717724     2.6408269564
C     -0.7136000838     -0.7052813066     3.5084267898
C     -0.7324249475     0.7384862694     3.3274991241
C     -1.3956171112     -1.4796355333     2.5979824392
C     0.6918375883     -2.7714843365     2.0160265835
C     -0.7270542296     -2.5669799404     1.8657225082
C     1.4002147678     -3.1025125201     0.8111267889
C     3.2272449393     -1.5485131751     1.4542724243
C     2.6831085114     -2.5493452089     0.6097176805
C     3.0732899285     0.8855090301     1.0214390603
C     3.4787700068     -0.3959010362     0.5871787102
C     2.5232724282     1.7770710872     0.0422175402
C     0.7036571498     2.4950245667     1.5883260376
C     1.4299939795     2.6804009808     0.3705941078
C     -1.4509979974     1.3330236028     2.2769793907
C     -0.7789975146     2.4069813599     1.5183011759
C     -2.3756903479     -0.8752285922     1.7421684618
C     -2.4580244499     0.5309229806     1.5656629062
C     -1.3575931006     -2.6567593446     0.6040657892
C     -2.5018555702     -1.7421906467     0.5968645604
C     0.7364944391     -3.1295801942     -0.5007125629
C     -0.6417901711     -2.8931850658     -0.6332008693
C     2.8121655125     -2.1461071306     -0.7811388166
C     3.22668621     -0.8016246365     -0.809053258
C     1.6659030621     -2.5780828173     -1.4889901709
C     2.3918079805     1.4346887245     -1.3365649027
C     2.6346698716     0.0939025773     -1.7669712034
C     0.7639526857     3.0215698167     -0.8276738031
C     1.3033354827     2.213387736     -1.8988286117
C     -1.3999716977     2.8651495449     0.3641160126
C     -0.6140714693     3.301790569     -0.8056074542
C     -3.0886197937     1.0311635594     0.3432310434
C     -2.6568604548     2.3084572121     -0.1437822661
C     -3.0484136222     -1.2887824282     -0.5621299497
C     -3.5616579365     0.0777206862     -0.6424118161
C     -1.165754258     -2.2845331611     -1.8815996204
C     -2.4690765928     -1.6699616933     -1.8596530705
C     1.1795186599     -1.7754570127     -2.5101959678
C     1.7168432282     -0.4525933662     -2.722218382
C     -0.2327875685     -1.7523574432     -2.8186514821
C     0.4557484888     1.7190219894     -2.9325431952
C     0.6525786939     0.3424994782     -3.2977939523
C     -0.4971495164     -0.5121162543     -3.5066442936
C     -1.3787262355     3.1036221154     -1.9539350199
C     -2.6934826491     2.5938480067     -1.5400520836
C     -0.9004468424     2.2657210862     -3.0203407718
C     -3.5577788102     0.397512517     -2.0204914481
C     -2.8046664614     -0.6396698231     -2.7420349787
C     -1.7981377664     0.0296783085     -3.5370323182
C     -3.1049353101     1.6465721052     -2.480825506
C     -1.9877635111     1.433687084     -3.4247440577


