58

 C     1.6348734392     -0.0124299774     3.9433639892
C     0.8157195719     -1.157200403     3.7945324718
C     1.3639628389     -2.0403525147     2.8097996613
C     2.6250236751     -0.060725363     2.9289790446
C     2.4607660496     -1.2951561935     2.1955458176
C     2.5613928582     1.1519028418     2.1584167656
C     0.7946836003     1.1230224831     3.6175660112
C     1.4386796026     1.9388883037     2.6515272523
C     -0.5699173368     -0.7346610841     3.6360820517
C     -0.5584988701     0.7197644795     3.396750269
C     -1.4204279047     -1.5233149384     2.9234294573
C     0.489549422     -2.8547030473     2.032246464
C     -0.9317326237     -2.7370264395     2.2647226486
C     0.8945055044     -3.1332860107     0.6874633675
C     2.6563969078     -1.3328966021     0.7814767062
C     1.9692030175     -2.3806709053     0.083075807
C     2.8664086861     1.1721456538     0.7669091017
C     2.9737844819     -0.0977193487     0.0507682387
C     2.4202279792     2.3307447717     0.0769036041
C     0.6751507247     2.7431353407     1.78220981
C     1.3929325357     3.1846375291     0.6262306604
C     -1.3186662919     1.3058377621     2.3362207133
C     -0.763388414     2.4735916101     1.6649653085
C     -2.413403405     -0.9033696213     2.027613184
C     -2.3011454698     0.4583240352     1.6249191831
C     -1.8268784108     -2.9938714207     1.2098273577
C     -2.7521508955     -1.8833374679     1.0791209661
C     -0.0564256505     -3.4500933419     -0.364516593
C     -1.4330696012     -3.3596317534     -0.1043269933
C     1.7337288796     -2.3171230241     -1.3415166605
C     0.4757995456     -2.9779671934     -1.6327640053
C     2.7239683833     -0.0634472528     -1.3502410743
C     2.0972450555     -1.1770747231     -2.0393638065
C     2.2422508959     2.3512838036     -1.3797237642
C     2.3347381573     1.1250204494     -2.0501734515
C     0.7048920483     3.7628194119     -0.4730515068
C     1.2403175144     3.2851135304     -1.7328563427
C     -1.3988577401     2.8945559755     0.4626182042
C     -0.6887786517     3.6534788717     -0.5249838878
C     -2.7365225033     0.7892152569     0.2590475566
C     -2.3207684584     2.0408841539     -0.2501928162
C     -3.0081644296     -1.6176717078     -0.2927920713
C     -2.2824880018     -2.6289640934     -1.0541493665
C     -3.074181345     -0.2646024399     -0.7188022101
C     -0.3635980944     -2.4685064658     -2.6148160541
C     -1.7888853394     -2.299481847     -2.3095195187
C     1.2654410061     -0.660920752     -3.1146447666
C     1.3418037973     0.7745293469     -3.0752644871
C     0.051712647     -1.3058819787     -3.4114508951
C     0.1262379483     2.8546635725     -2.5388316169
C     -1.0765271405     3.2238520345     -1.8563266848
C     -2.1118374504     2.2723551848     -1.6966575445
C     0.1782832667     1.5925999569     -3.2597131056
C     -2.7853239095     -0.0330414014     -2.1178892008
C     -2.1924017359     -1.0643270524     -2.8863083307
C     -1.0945594897     -0.4966676323     -3.6528116565
C     -2.2099363351     1.2048107903     -2.5722125159
C     -1.0711445617     0.8989468471     -3.4564307159


