58

 C     1.4275371054     -0.1156979363     4.4929052589
C     0.6686921036     -1.3305953645     4.6479861828
C     1.0955134634     -2.2306154765     3.6111505962
C     2.2866430718     -0.3129763048     3.3631904311
C     2.1459746201     -1.628128504     2.8181485938
C     2.2375111379     0.7978562577     2.4178094855
C     0.5286063569     0.8603436114     3.9520513326
C     1.0879235543     1.5650671165     2.8028444057
C     -0.6696798936     -1.0525610031     4.2024077403
C     -0.7928127667     0.333166846     3.8024421912
C     -0.0241718592     -2.8601715219     2.9219089626
C     -1.1874981721     -2.0837755614     3.3115318562
C     0.1440721137     -3.1878127417     1.5835317387
C     2.2280382936     -1.8367398865     1.4002887197
C     1.3362827454     -2.7917628526     0.8420610711
C     2.5338129173     0.6115666505     1.0618898612
C     2.6529218159     -0.7351150625     0.5199688353
C     2.1141748854     1.7026069032     0.1924361291
C     0.2609991688     2.1284027165     1.8231190448
C     0.9412440282     2.4853920134     0.5852835953
C     -1.604664339     0.7211302773     2.6839823039
C     -1.1599184089     1.8094986365     1.7969946838
C     -2.0916232739     -1.6957273282     2.3323404053
C     -2.4097697134     -0.2916981626     2.0967211558
C     -0.9616831187     -3.0655434163     0.6464709634
C     -2.0757688047     -2.3220234903     1.019613023
C     0.9888066433     -2.7189270274     -0.5477551484
C     -0.4310634949     -2.8946942711     -0.6917644859
C     2.5640332927     -0.8706354802     -0.9050630913
C     1.7130226805     -1.9250988219     -1.4694865301
C     2.4432146848     1.6093341272     -1.1606590572
C     2.7503359198     0.3066341293     -1.7120298284
C     1.7668169076     2.4188964817     -2.1790759208
C     0.1859406905     3.1158235945     -0.4046252303
C     0.6338428955     3.1750262201     -1.7996117302
C     -1.8636638363     2.0843118444     0.5779008825
C     -1.2547600757     2.9795368753     -0.3706159572
C     -2.8463518051     -0.1593994997     0.7367655465
C     -2.6556023882     -1.4100694783     0.0533161177
C     -2.7682418569     1.0656029358     0.0314274833
C     -1.132755717     -2.2159434898     -1.7204006036
C     -2.3170226202     -1.4255785289     -1.3237462237
C     1.0706330195     -1.7069361084     -2.7237414205
C     -0.3597287567     -1.7747372401     -2.8215368834
C     2.3237479742     0.3441215699     -3.0688953652
C     1.7072380471     1.6560723797     -3.3677604622
C     1.4992872811     -0.642201911     -3.591182988
C     -0.7848382205     -0.6567580039     -3.6887188304
C     0.4864468671     1.4488826345     -4.0787622851
C     0.349526338     -0.0049197841     -4.2103075501
C     -0.5141396911     3.1385854221     -2.6237613113
C     -1.685001042     3.0194803806     -1.7262565804
C     -0.6507022602     2.2077943052     -3.6979084177
C     -2.9382209558     0.9684869248     -1.3810419411
C     -2.6320788982     -0.2582100067     -2.0604399171
C     -1.9262436074     0.1049998963     -3.3064306989
C     -2.5206306145     2.0405960956     -2.2447810291
C     -1.9142044332     1.5058374281     -3.4521290791


