58

 C     1.4864173163     0.0576696131     4.0168014101
C     0.6827922187     -1.1723508322     3.9389798825
C     1.2774872724     -2.0440539454     2.9812759601
C     2.518448253     -0.0333310909     3.1135107277
C     2.5381837098     -1.3952745427     2.6016287866
C     2.4389551577     1.0808654477     2.1304406797
C     0.6224993108     1.1305728874     3.5770911705
C     1.2263463072     1.7897441755     2.420122834
C     -0.6683727086     -0.7930225049     3.788499205
C     -0.7017811695     0.690688194     3.536840535
C     -1.492082726     -1.5806967285     2.9843094522
C     0.4764451928     -2.6503712084     1.9239170395
C     -0.9223939513     -2.4881428379     2.009342141
C     1.0512577214     -2.8602953577     0.5876153237
C     3.0274730348     -1.5758430786     1.3544286757
C     2.4394080994     -2.5486442936     0.4394093687
C     2.8569264529     0.8939019452     0.8097412169
C     3.4605700063     -0.415518152     0.5234167713
C     2.1855583204     1.6152148373     -0.269910412
C     0.4251268375     2.3034703275     1.390111575
C     0.9807189838     2.3783177367     0.0338670887
C     -1.5885642198     1.2662960496     2.5758343777
C     -1.035707171     2.233044147     1.5948672259
C     -2.6184799534     -0.9577839337     2.3836126791
C     -2.7178551538     0.4792934556     2.1989881591
C     -1.7572817857     -2.3729430045     0.8015631363
C     -2.8689558075     -1.5459455599     1.1244805336
C     0.1925686709     -2.7517319913     -0.6238196515
C     -1.2073106678     -2.3397259527     -0.5001887062
C     0.8134198087     -2.5138510724     -1.8795021338
C     2.9917996418     -2.2499291784     -0.8213764809
C     3.562975458     -0.8685077806     -0.7653001805
C     2.2251810137     -2.2975081626     -1.952340048
C     2.4106486196     1.1654850114     -1.6548936646
C     3.0669436902     -0.1225840461     -1.8823648634
C     2.4467896854     -1.0718996584     -2.7442662683
C     1.5110883346     1.5735760948     -2.6517555975
C     0.1121413631     2.8549038839     -1.043729618
C     0.4495172565     2.5373451846     -2.4045804196
C     -1.8423367528     2.6013932869     0.5230730471
C     -1.2895996227     3.0678353047     -0.7432347246
C     -3.3706849215     0.7090642662     0.9532405861
C     -3.3364636236     -0.5462950389     0.2181878644
C     -3.0944415093     1.8824337665     0.2454048965
C     -1.8604662729     -1.4809284583     -1.5334453133
C     -2.9651883457     -0.5886948559     -1.1453494238
C     0.2055956054     -1.6316121077     -2.8600123438
C     1.2600705446     -0.7633876809     -3.3978389742
C     0.9812359879     0.5983389813     -3.6178620131
C     -1.1182972033     -1.1386227806     -2.7363940792
C     -0.5855833498     2.2739090325     -3.3597470398
C     -0.3267032011     0.9543406371     -3.9049753884
C     -1.4253091404     0.0882981849     -3.4892391157
C     -2.2781002096     2.7984276913     -1.734859238
C     -3.269874184     1.8828636898     -1.1341497208
C     -3.1817673865     0.6531453032     -1.8745491247
C     -1.9305772148     2.3115162165     -2.9843003573
C     -2.4704116231     0.9275404834     -3.0706174387


