58

 C     1.2012810091     0.0505540489     4.2305023059
C     2.4007315259     -0.2177006402     3.5809845986
C     2.2781355222     -1.5032239049     2.8249511674
C     0.3520336255     -1.1023907049     4.0487223509
C     0.9677344811     -1.9599068437     3.0104994846
C     -0.946457386     -0.6368080372     3.8870953518
C     0.4280973766     1.2648889442     3.8783404132
C     -0.9126603414     0.83992313     3.8166920923
C     0.9173057927     2.1632502912     2.8345326637
C     2.9586095551     0.716690361     2.7146164844
C     2.2494303841     1.912986048     2.3043363879
C     2.7879604935     -1.2803845907     1.5152544295
C     3.4159069312     0.0214196611     1.5233694385
C     2.0785046164     -1.7431937911     0.3486208183
C     0.1974441191     -2.393566965     1.8826987265
C     0.808217917     -2.4168786137     0.5436160606
C     -1.7434794251     -1.09669236     2.8319078669
C     -1.2365620955     -2.1324006471     1.9449695866
C     -1.8087101216     1.2254465511     2.780055377
C     -2.4517816279     0.038303717     2.2403020449
C     -0.0522225951     2.6608202384     1.892762123
C     -1.4114729499     2.1933680458     1.8661704819
C     0.2895504715     2.9539111559     0.5127951521
C     2.517394923     2.0753044713     0.9156086744
C     3.2028407976     0.8489973098     0.4407709725
C     1.6026778346     2.6991184863     0.0230427098
C     2.3125785149     -1.0488767146     -0.9155843519
C     2.8922118072     0.2995773084     -0.8264081675
C     1.581925292     -1.4219095748     -2.1224908481
C     -0.0223975584     -2.7003001513     -0.6324367044
C     0.4135167799     -2.3117503893     -1.9946977972
C     -1.9903752443     -2.3259204831     0.8079626503
C     -1.4186318486     -2.8818870607     -0.4005793817
C     -2.9192367013     -0.0222862984     0.9241411912
C     -2.9965292107     -1.3499218042     0.3910773104
C     -1.8602998274     2.1242747173     0.4717347916
C     -0.8472873596     2.7288426958     -0.3500660362
C     -2.6553001     1.0798749577     -0.0310072784
C     -0.7272743543     2.4451811968     -1.7351934415
C     1.7240089794     2.4287859292     -1.3563623192
C     2.5227517629     1.260287532     -1.7973219861
C     0.6187946585     2.5134856647     -2.2550549884
C     1.6508304892     -0.5102867023     -3.2455716872
C     2.0687703814     0.8390561192     -3.0300256023
C     0.9568200233     1.7212055628     -3.4076871107
C     0.5349009164     -0.4061605926     -4.1588047135
C     0.0162483883     0.999149312     -4.0794448442
C     -0.5825633344     -2.2873061887     -3.0529552897
C     -0.5229167163     -1.2445590826     -4.0499760193
C     -2.3722625315     -2.6395827663     -1.4327594352
C     -3.2156160262     -1.5244835161     -0.9573724558
C     -1.9689119513     -2.353243009     -2.7014626224
C     -2.6580298892     0.8284769424     -1.4941890564
C     -1.7236756581     1.5579152903     -2.3734021717
C     -1.354411763     0.9472437268     -3.6395098257
C     -1.7610964643     -0.4003536989     -3.9136744131
C     -3.1544226522     -0.4568095085     -1.9224735274
C     -2.6326296458     -1.0695547857     -3.1116216311


