58

 C     1.2675596723     -0.0568559526     3.6145224232
C     2.4160289064     -0.3812717675     2.9094091831
C     2.3958390814     -1.7762019621     2.5358346226
C     0.4107397237     -1.2340335417     3.5967970319
C     1.0450422353     -2.2310022369     2.7770935178
C     -0.9036970157     -0.8280268439     3.3657362735
C     0.4874645745     1.0670330372     3.2238987821
C     -0.8899939501     0.6404711125     3.3357178585
C     0.8820881046     1.9085350454     2.1277526873
C     2.8716147346     0.4264586321     1.8111943544
C     2.1298723109     1.5850576919     1.4052207336
C     2.9855990146     -1.8618142361     1.2551844674
C     3.3894905241     -0.4945776993     0.831428331
C     2.4334058961     -2.710356193     0.3101429685
C     0.2945793471     -2.832990489     1.7123842437
C     1.0809544866     -3.2392912579     0.5613849531
C     -1.7674254469     -1.5333791435     2.4449665514
C     -1.1267684374     -2.4749521191     1.5110463037
C     -2.9322179485     -0.8106739156     2.04232611
C     -1.9136109155     1.3229223495     2.703599269
C     -3.0419099187     0.6106530683     2.2837577904
C     -0.19658629     2.6220330796     1.4139946269
C     -1.5728623462     2.3569656944     1.7114642903
C     0.0436458006     3.1518737487     0.1309721987
C     2.2940262996     2.0127044277     0.0144136977
C     1.3405205987     2.9332913612     -0.5489496075
C     3.4052634181     -0.1519068993     -0.5096388429
C     2.9697756891     1.1645763018     -0.9176252552
C     2.5164865568     -2.3638493471     -1.1105740712
C     3.005070599     -1.1013458251     -1.5234081672
C     0.4717007783     -3.3858908129     -0.6918885125
C     1.3538449039     -2.8457220541     -1.7324557224
C     -1.6713344549     -2.5508817532     0.1530222427
C     -0.8297645228     -2.9358445121     -0.9339807537
C     -3.4747295083     -0.9982162172     0.7305233856
C     -2.7855955466     -1.728100741     -0.2190355734
C     -3.4927917369     1.2645830738     1.0475032978
C     -2.5717637734     2.3258218393     0.6857419604
C     -3.8253645532     0.3082272685     0.1288637286
C     -0.9826104363     3.218636211     -0.8670007788
C     -2.2346957428     2.5519731845     -0.6824613915
C     1.1424776475     3.0200653921     -1.9243723252
C     -0.3112440291     3.15962038     -2.1343841532
C     2.5209756181     1.0582858263     -2.2929657298
C     2.3535087002     -0.3635937453     -2.5810165075
C     1.6289671396     1.9922788939     -2.8066009297
C     0.5940711695     -2.0694129678     -2.6337065936
C     -0.7799687654     -2.1468203467     -2.169704473
C     1.1135778868     -0.8287542559     -3.1378557385
C     -2.7524132372     -0.9245725309     -1.4734581431
C     -3.3027818307     0.364246479     -1.2069987618
C     -2.6403384997     1.5443075411     -1.6956164337
C     -1.7057122979     -1.0926185955     -2.4181111777
C     -0.7096551217     2.2666304146     -3.0951120099
C     0.4800277332     1.5184880272     -3.5432757839
C     0.1483900943     0.1680182419     -3.5498370228
C     -1.7818284689     1.3448249924     -2.8232909455
C     -1.2749445008     0.0443746664     -3.1525725095


