58

 C     1.5284985051     -0.1301712773     4.3438044884
C     0.7053185194     -1.3333998886     4.2339446989
C     1.497800911     -2.3526976713     3.6446117158
C     2.6800922605     -0.3405378426     3.4732810146
C     2.6975831825     -1.6654414132     3.0561754367
C     2.7010434819     0.6797466499     2.4451739654
C     0.8130603787     0.9101943744     3.7602839905
C     1.5744851312     1.5421106263     2.7043394456
C     -0.550907035     -0.9995168904     3.6231120389
C     -0.5046603304     0.4461399767     3.3538151144
C     -1.1443307266     -1.8440273823     2.623077663
C     0.9591222779     -3.1491734765     2.6526504665
C     -0.3806616506     -2.9934672506     2.1869454012
C     2.7800165974     -2.0208841363     1.653972558
C     1.8197943384     -3.0447230941     1.4561336952
C     2.9966691638     0.3611092652     1.0790234734
C     2.9281129174     -1.0289353909     0.6221131503
C     2.6386769861     1.3701838287     0.1634185801
C     0.9068874115     2.2290258902     1.6698559205
C     1.6470919699     2.3718844573     0.4800549043
C     -1.1832334052     1.0501449198     2.2828401821
C     -0.5430035668     2.1352594192     1.5207532595
C     -2.0739134444     -1.2246390618     1.6793016341
C     -2.1980482068     0.2439791147     1.6185872303
C     -2.3519895347     -1.8977079022     0.4652849312
C     -0.3461635331     -3.2559950678     0.7577958754
C     1.0379895811     -3.1313538638     0.2963954568
C     -1.3543084275     -2.8125081939     -0.0447882905
C     2.3275369899     -1.2736772622     -0.6899614979
C     1.3253442494     -2.3247363079     -0.8356654212
C     2.5217184689     1.1387474071     -1.2392894612
C     2.3029384674     -0.2001996143     -1.6841903642
C     1.0740288361     2.8632180109     -0.7366280786
C     1.7961017358     2.2530205322     -1.8323710887
C     -1.140614796     2.6299293216     0.313037577
C     -0.317321382     3.1361844691     -0.8141073549
C     -2.8750147448     0.8360549241     0.553711293
C     -2.4366665067     2.1035139117     -0.0171320183
C     -2.9388915581     -1.2567075437     -0.6788037477
C     -3.3927452109     0.0514231014     -0.5639698094
C     -1.1046274198     -2.4362372167     -1.417270197
C     0.2453824003     -2.1796350115     -1.8316883309
C     -2.190061423     -1.6174537447     -1.8784715501
C     1.5100609431     -0.3369237812     -2.8798555377
C     0.3932111888     -1.2889308318     -2.9024521651
C     1.1667882028     2.1009378565     -3.0587441846
C     1.1199861329     0.7777433724     -3.6388086995
C     -0.8733934851     3.1807623974     -2.1602918563
C     -0.1096632243     2.7126429263     -3.2526399477
C     -2.9622857556     2.2070325618     -1.3382267373
C     -3.435847035     0.8668890951     -1.7194534656
C     -2.2452255178     2.7417281931     -2.393195645
C     -2.0409798124     -0.7173722156     -2.9811622916
C     -0.7267893479     -0.6760283266     -3.5746685461
C     -0.2333373922     0.5622547453     -4.1236383478
C     -0.9652691953     1.7535661534     -4.0093274811
C     -2.825105908     0.5192536648     -2.9482632063
C     -2.2502816134     1.7584005032     -3.4684298486


