58

 C     1.6772116765     0.0621812985     4.9452632138
C     0.8614574658     -1.1468513494     4.9965887976
C     1.4419609424     -2.0936246994     4.1926122768
C     2.7167329418     -0.1621580883     3.8831384297
C     2.6016083663     -1.5024161192     3.4569014847
C     2.6470279503     0.8704017468     2.8893983478
C     0.8566483342     1.0285815721     4.3948116296
C     1.5424899936     1.7361210773     3.3229179189
C     -0.4693920109     -0.8736681617     4.3927737821
C     -0.5058219113     0.4821309902     4.059157971
C     0.4972786897     -2.6030805417     3.2104270725
C     -0.7382436252     -1.8338433161     3.3217208027
C     2.4091043579     -1.7887504186     2.0846693603
C     1.144367129     -2.560180196     1.9719238258
C     2.7248851705     0.5862666241     1.4813162313
C     2.6113504318     -0.8053831041     1.0687434002
C     2.2047902987     1.5860069298     0.5386071532
C     0.785922608     2.3733919465     2.3932608333
C     1.288157781     2.5395418765     1.0530763947
C     -1.1815376448     0.9456865408     2.874109957
C     -0.6701733968     2.1269911751     2.2558570935
C     -1.3897878462     -1.4188287331     2.1449346955
C     -1.7963309684     -0.014081312     1.9711192995
C     0.3760646649     -2.4578695015     0.7973187908
C     -0.9869648497     -2.0612174396     0.8940957026
C     2.0982219077     -1.1043538521     -0.2598267673
C     1.0533877281     -2.0842474016     -0.4144972842
C     2.1210209078     1.2880086005     -0.8890486676
C     2.1806315662     -0.1099170291     -1.3042407839
C     1.3551060855     2.1445871905     -1.7325011894
C     0.1836175888     2.9413291598     0.2434060569
C     -1.0240248681     2.4778063993     0.94329691
C     0.2647701481     2.8683912863     -1.1146620389
C     -2.2477616683     0.4064263432     0.6706655861
C     -1.9540357491     1.7321476989     0.1708459508
C     -1.6816434613     -1.7737720359     -0.3171896666
C     -2.5165302993     -0.6103657808     -0.3495020694
C     0.3259624244     -2.2258177002     -1.6290162161
C     -1.1394582927     -2.2854748463     -1.5734856582
C     1.7157896753     -0.4697192946     -2.5909903932
C     0.9191208408     -1.6715070846     -2.7934072521
C     0.9081656783     1.7731192395     -3.0478967122
C     1.2530606839     0.5150737383     -3.5593717759
C     -0.9171634281     2.6435734193     -1.9118990555
C     -2.0311052139     2.0180743528     -1.2703149307
C     -0.4905321489     2.2226697958     -3.2273514349
C     -3.0458277221     -0.2294060256     -1.6017136393
C     -2.8300691273     1.1713008674     -2.0925912355
C     -1.8866758768     -2.0703387454     -2.7553431284
C     -2.9680339514     -1.1079445558     -2.6990289717
C     0.1476236851     -1.52882737     -3.9735091652
C     0.3561217002     -0.1336760585     -4.4779438265
C     -1.2039804475     -1.8545681329     -4.0364220554
C     -1.3779951479     1.5372801118     -4.0661853827
C     -2.6367662046     1.1180012101     -3.4821158846
C     -2.8509990133     -0.2784155826     -3.8949483046
C     -0.8751854822     0.3881470718     -4.8369672937
C     -1.8536190967     -0.7229337462     -4.7209881851


