58

 C     1.1415893643     -0.0712250445     4.0974425276
C     2.2795134514     -0.2890109083     3.3530173819
C     2.1546563138     -1.5767988694     2.6494123403
C     0.2617257147     -1.2469716383     3.8842559133
C     0.8661582095     -2.1123484253     2.8619366069
C     -1.007955397     -0.7721389625     3.7048022836
C     0.3546656704     1.12995208     3.8657750745
C     -1.0061548171     0.7084360454     3.7159590727
C     0.8354727652     2.08779197     2.9583936133
C     2.7821093839     0.6664468831     2.3989177633
C     2.1043581202     1.8746987295     2.2564747307
C     2.6787145253     -1.4342663274     1.3585548152
C     3.1462397211     -0.066126855     1.1842956844
C     2.0836594373     -2.1470973273     0.2761470397
C     0.0993384241     -2.5760724109     1.7347080112
C     0.7639546912     -2.744842983     0.4410952046
C     -1.8301126153     -1.2340580132     2.6374131439
C     -1.3443878504     -2.2566053684     1.7460206649
C     -1.8033103104     1.112285194     2.6408492624
C     -2.4612533142     -0.081744418     2.0731948283
C     -0.0679339347     2.6643728231     1.9780627261
C     -1.3755200908     2.1416066587     1.7328138071
C     2.0217023463     2.4900033134     0.9357256337
C     0.7281569597     3.0998406295     0.8528246434
C     3.1299056781     0.5335321627     -0.0955192712
C     2.6108426978     1.9024324077     -0.2282365933
C     2.5039402784     -1.6934066277     -1.0034615017
C     2.9908966371     -0.362271545     -1.1991530606
C     1.7699931423     -2.0684496668     -2.1692560755
C     -0.0448671327     -2.9769985227     -0.774934923
C     0.4775630746     -2.6778892686     -2.0674429584
C     -2.0765906016     -2.3804578921     0.5670379743
C     -1.4822541432     -2.9207043868     -0.6603260905
C     -3.0077535464     -0.1010073717     0.7799400833
C     -3.0809707933     -1.4146889865     0.192249381
C     -1.9426517069     2.1584751322     0.3640207499
C     -2.8453416827     1.0747462773     -0.0858837724
C     0.1269349519     3.3175313702     -0.3822123357
C     -1.2442238813     2.8831442691     -0.6281652194
C     2.0588626882     2.2851743568     -1.4970604746
C     0.8991178941     3.0784644343     -1.5410317606
C     2.4609028293     0.0712344373     -2.5042481737
C     1.7695225182     -1.0308675631     -3.1196496717
C     1.9400044056     1.3396960369     -2.6169282781
C     -0.3333431672     -2.0607505605     -3.1122589956
C     0.416199724     -0.908843627     -3.6092565938
C     -2.2764141321     -2.5123016631     -1.7359890822
C     -3.2756565265     -1.5615804177     -1.2010495014
C     -1.7160457262     -1.9673776218     -2.94487224
C     -3.0071034365     0.8618146557     -1.4878650099
C     -3.2594435574     -0.4556532526     -2.0133441587
C     -2.3636119854     -0.7047678754     -3.1693056347
C     -1.3063944224     2.5106700583     -2.0364357593
C     0.01679458     2.5807820289     -2.5884634071
C     0.6174027811     1.5164347066     -3.2648470119
C     -0.1900808666     0.3796412725     -3.6743528308
C     -2.1261113405     1.4834191644     -2.4437063165
C     -1.6154120201     0.4546972829     -3.386084279


