58

 C     1.4494080022     -0.0026069681     4.3013445049
C     0.6907784949     -1.211392022     3.9436715406
C     1.5248424534     -2.0361799594     3.2322355343
C     2.6613325427     0.0071450448     3.469696922
C     2.8055319012     -1.2825142936     2.9354103488
C     2.6342532215     1.1443395902     2.5940042605
C     0.6844229446     1.0828648564     3.9462629427
C     1.480390328     1.920336552     3.0427877337
C     -0.5634217652     -0.8120717911     3.3209285572
C     -0.60922309     0.6215290815     3.4179747429
C     -1.0498369915     -1.4486520137     2.1333786566
C     1.1034277236     -2.6698485325     2.0377840307
C     -0.2207774419     -2.4873928588     1.5068032809
C     3.092104113     -1.4810540517     1.5947383827
C     2.2285083991     -2.5940874235     1.1373385853
C     2.8395444808     0.991438632     1.1682243265
C     3.2176073389     -0.3423381786     0.6827610283
C     2.1604582713     1.903609633     0.2284931004
C     0.8107527443     2.7090305075     2.1717850899
C     1.2893047304     2.8868897846     0.8028034526
C     -1.299276825     1.3986090515     2.4698417764
C     -0.6588753822     2.638555153     2.0865310874
C     -1.9955609224     -0.7083344877     1.3001472498
C     -2.1508918276     0.7299630239     1.4966191147
C     -2.4532347255     -1.3155915848     0.0516388833
C     -0.4188423728     -2.8076378141     0.1028364092
C     -1.623207165     -2.3544926765     -0.5732647706
C     2.0603371884     -2.8359882658     -0.1908185886
C     0.7377544239     -3.1111671656     -0.696184292
C     3.045511012     -0.623304474     -0.6868163919
C     2.7477529007     -1.9848398483     -1.1433185908
C     1.873851609     1.5187797812     -1.1660380126
C     2.4133667438     0.284831733     -1.6088400457
C     0.7150794654     2.0406765893     -1.9153777424
C     0.2318295579     3.4240044245     0.0625199142
C     -0.997917793     3.2383693399     0.8797282618
C     -0.0860168235     3.0174892709     -1.2368679709
C     -2.6902380952     1.5305408505     0.4068827833
C     -2.0213505168     2.7678186454     0.0660146791
C     -1.5423183104     2.9323979358     -1.3181749308
C     -3.329965711     -0.5496235811     -0.7829382851
C     -3.352505374     0.8816657896     -0.6511237745
C     -3.4566189858     -0.8178184363     -2.208615353
C     -1.6258581868     -2.4110280922     -2.010605826
C     -2.5337969818     -1.6514111254     -2.787920729
C     0.7851243569     -2.7145387563     -2.0820568379
C     1.974953966     -1.9114801636     -2.2894680166
C     1.74579167     -0.4995026754     -2.6150020512
C     -0.3650243852     -2.3479717878     -2.7095456709
C     0.0489564384     1.2565032457     -2.9713410122
C     -1.7320157973     -0.8519276171     -3.7955265884
C     0.5611738237     -0.0901027223     -3.2578503805
C     -0.3965039612     -1.1498600077     -3.5799728281
C     -2.1416214858     2.263721384     -2.3294777554
C     -3.3266947377     1.4633080396     -2.0025946053
C     -3.4302840182     0.4601836951     -2.9365417643
C     -1.3380977132     1.5212881506     -3.2976696219
C     -2.2041734699     0.4688695694     -3.7472347338


