58

 C     1.6114184094     -0.3059516942     4.3904168761
C     0.8162449576     -1.4181048186     4.3480974287
C     1.3002998808     -2.3711046882     3.3721033513
C     2.6265330527     -0.4656068255     3.356413746
C     2.4025612218     -1.7349328052     2.6629088191
C     2.5631598548     0.6739426844     2.5574788227
C     0.7537362608     0.8320907757     3.9926485233
C     1.3842504132     1.5097132245     2.9665874871
C     -0.5773103105     -1.0414233365     3.9954758148
C     -0.6025361928     0.3656664524     3.7375444727
C     0.1682521634     -2.7833946691     2.6314307653
C     -1.0050292444     -1.9398271827     3.000431638
C     0.3173608073     -3.0893994221     1.2844457089
C     2.439732884     -1.7817036069     1.2225624748
C     1.5018398614     -2.6381418253     0.5763134529
C     2.8878897582     0.6509979828     1.1748570769
C     2.8523966555     -0.5874353495     0.4350314686
C     2.5911511811     1.8700603968     0.5066952911
C     0.627310172     2.2074676984     1.9560987041
C     1.3778160113     2.6377846939     0.8599070464
C     -1.3307262942     0.8500658871     2.5975306706
C     -0.7921444313     1.9270425587     1.7802778
C     -1.9198361161     -1.5193979679     2.0010064873
C     -2.226038065     -0.0958184897     1.9431876366
C     -0.784731738     -2.9878488997     0.3872229465
C     -1.9612752383     -2.2734421327     0.7462736785
C     1.1343732867     -2.4835727083     -0.800942733
C     -0.2532453905     -2.7945558855     -0.9445878554
C     2.639171672     -0.5202799517     -1.0089214523
C     1.7637945221     -1.5169370767     -1.6536692113
C     2.7149157369     1.932596652     -0.864441955
C     2.7294167004     0.7523519377     -1.6611424094
C     0.7845562147     3.1018092958     -0.3623438566
C     1.7102531512     2.8446041114     -1.4106220262
C     -1.4167304051     2.2836097368     0.4992245314
C     -0.6253060154     2.9331671164     -0.5902952835
C     -2.9396351637     0.3751502938     0.8252589476
C     -2.5950818883     1.5997574035     0.1458866053
C     -2.7581622766     -1.7705503262     -0.325409065
C     -3.4026529914     -0.5380048904     -0.1653677561
C     -1.0338284335     -2.286056966     -2.0244426614
C     -2.3553971609     -1.8610312192     -1.7405767189
C     1.0922383048     -1.2089540636     -2.85381684
C     -0.2984814522     -1.6329816245     -3.084118126
C     1.9680399095     1.0688272707     -2.8646705417
C     1.304026478     2.382688353     -2.6601169678
C     1.258076338     0.0764385645     -3.5233311325
C     -1.0245044216     2.7958435301     -1.949951598
C     -0.0535152392     2.5571707785     -3.0149882377
C     -2.992647554     1.446608735     -1.2684995079
C     -3.4691501695     0.1340376643     -1.4476153112
C     -2.9133100848     -0.7201291766     -2.4558062637
C     -2.2384351603     2.0437969072     -2.3010188193
C     -0.9301244723     -0.6760725266     -3.8944570746
C     0.0185214687     0.3993474711     -4.1788083981
C     -0.6283169644     1.6059373663     -3.9067891501
C     -2.2084675386     -0.1214609439     -3.51641639
C     -2.0027169953     1.3055455701     -3.4801509398


