58

 C     1.0667875054     -0.095941254     4.1345685975
C     2.2560532597     -0.2540628464     3.4614895671
C     2.2083847268     -1.5128035505     2.6777264586
C     0.2489105781     -1.2948597175     3.8664358987
C     0.9194064374     -2.0954535567     2.8327668635
C     -1.0489270337     -0.8865990231     3.6886317081
C     0.233861838     1.0764636911     3.8671751103
C     -1.099147674     0.5969526447     3.6724034062
C     0.7073722195     2.0487698671     2.9767325734
C     2.8034333208     0.7707725834     2.6227330375
C     2.0663548825     1.9555052901     2.441143205
C     2.763397482     -1.2806280006     1.4238737306
C     3.3219240477     0.0922700298     1.4338245435
C     2.1481639933     -1.8051993339     0.2335184363
C     0.2140470514     -2.5298793949     1.6833960538
C     0.8813251717     -2.5026874986     0.365069529
C     -1.8219196885     -1.3863107016     2.6169532579
C     -1.2560227642     -2.3464063995     1.7058180792
C     -1.8690906778     0.9568443099     2.563720764
C     -2.5065980885     -0.2605705858     2.03934698
C     -0.1336082189     2.5067627573     1.8757935572
C     -1.4061653441     1.9311398364     1.6019567887
C     2.0854223947     2.5963076401     1.1462503102
C     0.7249543875     2.9218504938     0.7820819413
C     3.4752333765     0.7670984839     0.2607467388
C     2.9530031072     2.1342799096     0.1475775597
C     2.5171978551     -1.1719580743     -1.0393499341
C     3.2373939664     0.0851947516     -1.0131828665
C     1.709730264     -1.4162559442     -2.178408303
C     0.0847310487     -2.7483070263     -0.8440953654
C     0.5318536649     -2.2604901583     -2.1041930173
C     -1.9780171495     -2.5126888881     0.5326439263
C     -1.3421129058     -2.9426335909     -0.7220496236
C     -3.0509639333     -0.3170085832     0.7643003245
C     -3.0632472648     -1.6346475837     0.1847597695
C     -1.9047333965     1.8698177674     0.2218697014
C     -2.9205584854     0.8561887621     -0.1311729429
C     0.2742546472     2.8981757781     -0.5615879699
C     -1.0987889331     2.4541264945     -0.8353499773
C     2.5770905305     2.3070311176     -1.1956958258
C     2.9034351893     1.0820934178     -1.947463834
C     1.2867517091     2.7125101181     -1.5814791954
C     1.4598588636     -0.4039267834     -3.1795198607
C     1.9416597007     0.8925506068     -2.9547364709
C     0.9658282879     1.9792276231     -2.8077589423
C     -0.3951930563     -1.8557200159     -3.1557718629
C     0.1256215926     -0.6000000303     -3.6982730512
C     -2.2154341622     -2.6466703777     -1.7714433876
C     -3.2900114484     -1.7965747869     -1.2001885221
C     -1.7745811716     -2.029235344     -2.9835506953
C     -3.257987487     0.6492889348     -1.4915573691
C     -3.4853166003     -0.7065145273     -2.010310914
C     -2.6606076371     -0.8896676508     -3.2204899982
C     -1.4137419197     2.1152469519     -2.1979203684
C     -0.3339967962     1.7554464612     -3.1474435172
C     -0.7279716051     0.5126807381     -3.8130399843
C     -2.51555906     1.3228487812     -2.5015575587
C     -2.1231406083     0.3362553766     -3.5377170698


