58

 C     1.6453840174     -0.1767601255     4.4264520542
C     0.7700973047     -1.2959181612     4.5071235633
C     1.1613557175     -2.3201208059     3.5954925541
C     2.5624825391     -0.4240279513     3.3708673919
C     2.2595584197     -1.7675787101     2.8443099511
C     2.4051466602     0.6432318148     2.4181213389
C     0.8196888666     0.9560120389     4.0620305235
C     1.3463436417     1.5480967483     2.890212656
C     -0.5961835423     -0.9029436184     4.2365221511
C     -0.5848340857     0.5414147152     4.0573811494
C     -0.0300409268     -2.686468475     2.8662865431
C     -1.1126695364     -1.7382573419     3.2074058863
C     0.1019938226     -3.0447244088     1.5512790875
C     2.3567715541     -2.0096775934     1.4528869992
C     1.3890154444     -2.8966007689     0.8921347908
C     2.580322522     0.4632701032     1.0261621233
C     2.8024264867     -0.9173078107     0.5554717653
C     2.0276138738     1.4425118559     0.0977118838
C     0.4964206024     2.1830266914     1.9377755011
C     0.9394950997     2.3114449051     0.5518540219
C     -1.3916241699     1.0577753384     3.0784605124
C     -0.9043864623     2.089741702     2.1770853562
C     -1.9381120698     -1.2015098588     2.1435287674
C     -2.2273198698     0.1866510691     2.2407351329
C     -0.8996497859     -2.7463676642     0.5283224509
C     -1.9047802894     -1.7770956149     0.7729083546
C     1.1566521597     -2.9479771233     -0.5103424203
C     -0.2796030929     -2.8578920801     -0.7576504636
C     2.7705058034     -1.147530673     -0.8102825163
C     2.0268960817     -2.2902102903     -1.3635380958
C     2.1958112995     1.2294132258     -1.3322628314
C     2.6366976076     -0.0712143001     -1.7753736866
C     1.4434586308     2.0055358132     -2.2547575697
C     0.029104903     2.8688259491     -0.4152200264
C     0.3994297654     2.8933268352     -1.7939796355
C     -1.7790836871     2.1369894078     1.0637056897
C     -2.566569425     0.9122491763     1.076713317
C     -1.4149570757     2.7466758319     -0.1411033266
C     -2.4207698333     -1.0493668402     -0.3856023739
C     -2.8957403983     0.3073797013     -0.1615172975
C     -0.7862797814     -2.2073695926     -1.9080972027
C     -1.9689846777     -1.3622072817     -1.7437560307
C     1.5541090763     -1.9172657042     -2.6360556855
C     2.0856113077     -0.6070130911     -2.9682441893
C     0.1728480419     -1.8845851088     -2.9446070925
C     1.0099379674     1.4761046686     -3.5586956243
C     1.1650333831     0.0924235994     -3.7750210428
C     -0.0480809867     -0.7447246038     -3.8284668655
C     -0.5837089704     3.0006601309     -2.8256152957
C     -0.2185955645     2.0916994483     -3.8997739233
C     -2.3244052662     2.5048543743     -1.2101109353
C     -3.0311895989     1.2226379544     -1.2293079754
C     -1.975128563     2.8191417871     -2.5537331855
C     -2.2808186253     -0.4625772878     -2.8200204195
C     -1.2939529975     -0.1534181596     -3.8710180666
C     -1.3769634022     1.2832572843     -4.1285072013
C     -2.9664314835     0.7706939995     -2.5798946464
C     -2.5093484321     1.8236648461     -3.4463859212


