58

 C     1.3550605051     0.043401627     4.0506102145
C     2.5063376417     -0.1717334871     3.3055835401
C     2.4225227893     -1.5432590099     2.7236897623
C     0.4790852703     -1.1453727431     3.9072761075
C     1.1419348089     -2.0922317899     3.0869605809
C     -0.8377187266     -0.700954081     3.5525781391
C     0.5760398325     1.192459024     3.7865063021
C     -0.7787771005     0.7167277819     3.5363880151
C     0.8844765964     2.0497307126     2.6980789188
C     2.8860090779     0.7196631981     2.2642908331
C     2.0684924272     1.86334826     1.910735143
C     2.8361955569     -1.5038080851     1.399985911
C     3.3279354212     -0.1387359226     1.1737202299
C     2.0858582505     -2.167587959     0.3256572632
C     0.4082489326     -2.7451261446     2.0828324742
C     0.9233745597     -2.8708324891     0.7469908387
C     -1.6192888529     -1.3720252623     2.5306694746
C     -1.0243029404     -2.522239347     1.9452636868
C     -2.5491099287     -0.5700361172     1.7025423044
C     -1.3807886868     1.4757228993     2.4998876881
C     -0.3745296258     2.3641078192     1.9937250293
C     -2.3590439557     0.8853078289     1.6557401536
C     -0.4108785566     2.7919470069     0.6579868686
C     2.0638394687     2.3403088896     0.5169778426
C     0.8452788152     2.9240009159     -0.0887285655
C     3.3853480416     0.3373576203     -0.0838124474
C     2.9928275984     1.7139993943     -0.3742076246
C     2.122972713     -1.6366847995     -1.023715485
C     2.9841468711     -0.4947461861     -1.2393892976
C     1.0002753437     -1.83641     -1.9653389157
C     -0.1883211735     -3.0484405099     -0.1603557067
C     -1.3920058052     -2.9277670712     0.6236295755
C     -0.1482026982     -2.631121495     -1.518117885
C     -3.1095631875     -1.1659156122     0.551811933
C     -2.5462866519     -2.4172445453     0.035053967
C     -3.5779962902     -0.3972267264     -0.6017671447
C     -2.6012393256     1.5889558728     0.4453371639
C     -1.6421052647     2.5374871147     -0.0360788247
C     -3.2596635298     0.9677540928     -0.6894619783
C     -1.7107190456     2.5081076474     -1.4841075993
C     -2.7098075996     1.5347841983     -1.9038106527
C     0.7315882268     2.9851611157     -1.5081874969
C     -0.5437027556     2.7013290602     -2.1959267371
C     2.818576026     1.7593598747     -1.7685777978
C     2.7899392829     0.3758386888     -2.29809425
C     1.7570749167     2.4390658156     -2.3369279324
C     0.7871198254     -0.8671932659     -3.0418153744
C     -0.2671605035     1.8000346257     -3.3189466141
C     1.6754623106     0.249855601     -3.1790410185
C     1.1247436622     1.5648683731     -3.3198142172
C     -2.4330281111     0.6924853391     -3.0078976171
C     -0.5639599428     -0.6385167809     -3.5440518208
C     -1.119910908     0.7403768964     -3.6023750702
C     -1.4338714726     -2.4724243433     -2.1632189468
C     -2.6147436398     -2.3937415945     -1.3641641828
C     -3.3798596687     -1.2054680915     -1.7737870272
C     -1.5984993419     -1.496241704     -3.2005085017
C     -2.8056795027     -0.6904621609     -2.9182832284


