58

 C     1.2157289245     0.1515888221     4.1125429876
C     2.3887293193     -0.0213808354     3.357584403
C     2.4456126687     -1.3847908508     2.8828314811
C     0.3854898237     -1.0478175168     3.9093985309
C     1.1072286444     -1.9073425984     3.0482415645
C     -0.9013135474     -0.5987369717     3.5028246657
C     0.4075639621     1.2680824483     3.8604664168
C     -0.9637527425     0.825714312     3.7027797205
C     0.7090976066     2.2142873164     2.8216624702
C     2.7390245928     0.8714064116     2.2844796253
C     1.8854449313     2.0081810512     2.0130798454
C     3.0222965114     -1.3557031066     1.596434372
C     3.1895649856     0.0459468431     1.1854602391
C     2.6027819396     -2.2735065625     0.655300358
C     0.4571593291     -2.579032187     1.9254619745
C     1.3419145954     -3.0080711008     0.9029058639
C     -1.5844033958     -1.1945310814     2.3484542681
C     -0.9217016658     -2.2381689672     1.5550299819
C     -2.5242210572     -0.3683043756     1.6995883804
C     -1.5649540602     1.6471467201     2.7331080752
C     -0.548421947     2.5359676294     2.1696974784
C     -2.4873457749     1.0840474823     1.8644628704
C     -0.6372773412     2.9390032863     0.8108620814
C     1.7964683994     2.415400947     0.6543361565
C     0.598956216     2.9925560073     0.1003011196
C     3.0374239497     0.4140299315     -0.1854763332
C     2.4515785433     1.6918371359     -0.4122937499
C     2.6798564963     -1.9893926662     -0.7542510992
C     2.850523514     -0.6312044111     -1.2164239974
C     0.8377111175     -3.3551146996     -0.3582344191
C     1.720874657     -2.8132595847     -1.3881838361
C     -1.3944033412     -2.4946591346     0.1848212428
C     -0.4889262467     -3.1187530078     -0.7379369529
C     -2.9988705343     -0.6270627444     0.3638278538
C     -2.467732972     -1.6906253566     -0.4044307489
C     -2.7562284075     1.6741613109     0.5931766499
C     -1.8590428968     2.6370753203     0.0360715126
C     -3.3283350383     0.6428509716     -0.2464830688
C     -1.8052248774     2.7015882019     -1.3984480286
C     0.6444500782     2.8441660028     -1.3405890534
C     1.7868599457     2.0052516085     -1.6550039325
C     -0.5135242046     2.7650592664     -2.0834691789
C     2.1952564043     -0.2873740827     -2.4333941264
C     1.6842013408     1.0495263593     -2.6541252213
C     0.9553493426     -2.415113601     -2.4923961711
C     -0.4458553916     -2.7150523307     -2.1592426157
C     1.2608115276     -1.1869453958     -3.0993385565
C     -2.5551831571     -1.5283989412     -1.8552419641
C     -1.4403555639     -1.9680397246     -2.7093701708
C     -3.3630616533     0.7901110237     -1.6305926883
C     -2.6543687928     1.8981633434     -2.1966478235
C     -3.0757744127     -0.3646690313     -2.4312310832
C     -0.5686917418     1.8886895728     -3.2662835299
C     0.4785188365     0.987111903     -3.4867009117
C     0.2030828448     -0.420178665     -3.7243070405
C     -1.1283952927     -0.8857980035     -3.6562795775
C     -1.9193547962     1.420047627     -3.3686460735
C     -2.1828402152     0.0600286489     -3.5301702364


