58

 C     1.6248609424     0.0473771896     4.2151751967
C     0.8146907919     -1.1527060221     4.1649205506
C     1.4696766346     -2.1124491337     3.3714900547
C     2.6593119753     -0.1133032197     3.2225402772
C     2.6329112569     -1.4411147561     2.7587742237
C     2.5226404879     0.9283144522     2.2194307635
C     0.7933653529     1.0902781539     3.7411127267
C     1.4009724967     1.7446728088     2.6000017194
C     -0.5538895013     -0.7836341118     3.8151617176
C     -0.5727909578     0.6622363359     3.5868470713
C     -1.2674852852     -1.5857994289     2.9279137258
C     0.7839173601     -2.7969451475     2.3252622092
C     -0.6060158841     -2.6541426684     2.1985545129
C     2.6339834758     -1.7314742416     1.3719156857
C     1.5800730722     -2.6828603419     1.0978567052
C     2.72899456     0.6760160795     0.8347954239
C     2.8529250745     -0.7048057017     0.3895699707
C     2.2071858325     1.6710704886     -0.0921909443
C     0.6034489018     2.426002677     1.6570067808
C     1.1683782014     2.5992095596     0.3288044272
C     -1.3924031877     1.2649009883     2.6054677411
C     -0.8473945554     2.3941399496     1.8339776324
C     -2.2241308177     -0.9829012571     2.0177893632
C     -2.3796079134     0.4251582609     1.9265145685
C     -1.2029813677     -2.7174071825     0.8897691729
C     -2.2921306213     -1.7803427587     0.8194689549
C     1.0214314976     -2.8098120186     -0.1885371779
C     -0.4268533027     -2.962621295     -0.2778715465
C     2.5818487995     -1.0398797824     -0.9838151994
C     1.7427250315     -2.1937175623     -1.3081951695
C     2.3476563975     1.378494162     -1.4707091502
C     2.6350409315     0.0459892246     -1.9169470896
C     1.4843339818     2.0099589655     -2.4810624865
C     0.3267212626     3.1971052296     -0.6650790337
C     0.4190398627     2.795983506     -2.0721262137
C     -1.6355352073     2.9239150239     0.7894685737
C     -1.0172802792     3.4477340699     -0.3777907577
C     -3.0284239426     0.929194846     0.7441519667
C     -2.8317860308     2.2402624983     0.3402541075
C     -2.7531614847     -1.246526163     -0.4303745581
C     -3.2029225964     0.0910064794     -0.4605262043
C     -1.054888965     -2.6887808936     -1.5332532042
C     -2.2113813552     -1.775270127     -1.6263610407
C     1.121273466     -2.2514232413     -2.5921529052
C     -0.2815321974     -2.5463124989     -2.6726781803
C     2.0606299715     -0.1039698471     -3.2243036596
C     1.2601559231     1.0958024971     -3.5283568916
C     1.3496291196     -1.2220233321     -3.5701322415
C     -2.0533355728     -0.9692042131     -2.7995646111
C     -0.9319187291     -1.5224487268     -3.5228828359
C     -0.0462795183     0.7111883673     -3.9370458586
C     0.0250832817     -0.7299723435     -4.0814580163
C     -0.9122537831     2.543938313     -2.5885419321
C     -1.7936902107     3.0080097444     -1.567749761
C     -2.8564834858     2.2578544273     -1.1271107351
C     -3.0149945114     0.9138684592     -1.6217456961
C     -1.1961423318     1.3291138768     -3.3138079249
C     -2.2652123376     0.4530513419     -2.7616247781


