58

 C     1.6705004243     -0.12173595     4.2388424448
C     0.8911624581     -1.2858433179     4.3899050086
C     1.3517997549     -2.2764261671     3.444146102
C     2.5773415619     -0.3335262998     3.1630449071
C     2.4176288558     -1.696631413     2.6665253665
C     2.4793456345     0.7568260069     2.2236199866
C     0.7877071287     0.9551066323     3.795874148
C     1.3581976828     1.6060352467     2.6719340476
C     -0.4603467672     -0.9606009694     4.0040655556
C     -0.5429614699     0.4610755043     3.6731846049
C     0.2079346893     -2.7824808592     2.7376556773
C     -0.9486431224     -1.9096905827     3.0627134629
C     0.3722309889     -3.1816798441     1.4314226444
C     2.4975469848     -1.9257832433     1.2652822246
C     1.5967818439     -2.8892507051     0.722148756
C     2.6961961197     0.5788248122     0.8499179252
C     2.8762523401     -0.8013412497     0.3570695857
C     2.2050573792     1.6149532488     -0.0607458871
C     0.5344041501     2.2010320049     1.7162017352
C     1.1632086335     2.4993646141     0.430262569
C     -1.3573630006     0.8838763324     2.5923616743
C     -0.8974382929     1.9876292369     1.7612984154
C     -1.844483032     -1.5188241953     2.0427305138
C     -2.2330132878     -0.0992950263     1.9603675706
C     -0.7107831744     -3.0568710763     0.4643929216
C     -1.8595610446     -2.2873416562     0.7834182526
C     1.2771261529     -2.9089755565     -0.6766542836
C     -0.1558186778     -3.0434523439     -0.8607952031
C     2.7757655666     -1.0001687743     -1.0159324103
C     2.0235837907     -2.13808669     -1.5576764636
C     2.3074395407     1.4267573728     -1.4938883394
C     2.5892305631     0.1017144099     -1.9571382
C     1.5483814975     2.2732691419     -2.382093852
C     0.4108480727     3.2625162442     -0.471957436
C     0.7482967277     3.2968150331     -1.8543807038
C     -1.6824524545     2.3924799369     0.6167940798
C     -1.0586585998     3.2115340102     -0.3916631404
C     -2.9841114378     0.3138828826     0.8410310167
C     -2.7885796593     1.6048724526     0.2220966213
C     -2.6000206695     -1.7811352803     -0.3233020508
C     -3.3649304025     -0.6119844572     -0.188280626
C     -0.8168417748     -2.3950440515     -1.9592512811
C     -2.0876590639     -1.8267583762     -1.7015366938
C     1.4194530118     -1.6968942636     -2.7557834675
C     1.896040761     -0.4001210271     -3.0934198003
C     -0.0062080011     -1.7490929133     -2.9640252437
C     0.7486494709     1.6813626272     -3.5079815155
C     0.8161442869     0.3220306716     -3.6945374995
C     -0.4036717836     -0.5119843444     -3.5796396849
C     -0.492274913     3.4039931916     -2.6189050554
C     -1.5775783198     3.2850652504     -1.7174811712
C     -0.5434304066     2.3182058529     -3.5139136445
C     -3.102445703     1.4593062726     -1.2165626791
C     -3.337954738     0.0842494977     -1.4395656336
C     -2.5277095198     -0.6372953951     -2.3828656207
C     -1.6727950871     0.0943026332     -3.2896761896
C     -2.4401951187     2.2129625622     -2.1853471459
C     -1.7463265407     1.5382723658     -3.2733068959


