58

 C     1.2192756285     0.0857045339     4.0051188257
C     2.4297572791     -0.0831960335     3.3011699808
C     2.4371044869     -1.4009406676     2.7855330354
C     0.3682715669     -1.1185329922     3.7550265351
C     1.1132011188     -2.0098069304     2.9632263459
C     -0.9035352141     -0.6671946028     3.3257562699
C     0.4375755924     1.1949801747     3.7777368492
C     -0.9397172577     0.7835917435     3.5511774363
C     0.7993767832     2.2032384272     2.7864001641
C     2.7990290442     0.8385316298     2.2195066939
C     1.9876550263     2.0131473336     1.9816450968
C     3.0368211946     -1.3662354057     1.4952242899
C     3.2312333521     0.0461159511     1.1093786344
C     2.6016225414     -2.2671055246     0.5655559564
C     0.4958312096     -2.6918083555     1.8724493194
C     1.3921974177     -3.0810120288     0.8153062338
C     -1.5438877428     -1.2455799498     2.1839766259
C     -0.8819257788     -2.3536848395     1.4961461834
C     -2.4792042028     -0.3808474935     1.4384034898
C     -1.4435076963     1.6053430066     2.565597942
C     -0.4130085423     2.5945896985     2.1654785748
C     -2.3766482539     1.0985081992     1.5945788802
C     -0.4655013397     3.1512651179     0.8613873437
C     1.9178465344     2.4736056878     0.6346742646
C     0.7473345058     3.1579325913     0.1133808708
C     3.0381306872     0.4396681873     -0.254323973
C     2.5019225522     1.7366261653     -0.4541523743
C     2.6621682474     -1.9554274357     -0.8674669979
C     2.7935969183     -0.5923645263     -1.2919847208
C     0.9089547742     -3.4283589179     -0.4366430169
C     1.7423428522     -2.8071891234     -1.4903394033
C     -1.3620013168     -2.7290698495     0.1587729267
C     -0.4410628674     -3.2859733236     -0.805728744
C     -3.0361135697     -0.8593976027     0.2514955603
C     -2.4909616572     -2.052228327     -0.3822009514
C     -3.459873911     0.0461118599     -0.8133256073
C     -2.6506631664     1.9421449787     0.5160492742
C     -1.7036135311     3.0219329921     0.143315025
C     -3.2505369896     1.4276617321     -0.7028948961
C     -1.7055529089     3.0718436002     -1.2527167698
C     -2.6818623472     2.1300357593     -1.7986749584
C     0.7185885884     2.996941555     -1.3266037032
C     1.7708811295     2.0734830463     -1.6672110071
C     -0.5002639953     2.9637594667     -2.0138984108
C     2.0603160488     -0.2343590345     -2.4694806736
C     1.5560035375     1.11470848     -2.6466813722
C     0.9058216738     -2.4095452185     -2.5430754828
C     -0.4531074158     -2.8302609858     -2.2023232181
C     1.119894368     -1.1331473651     -3.1028605513
C     -2.6261742584     -1.8799461215     -1.7955543132
C     -3.1717327218     -0.5804014033     -2.0609860367
C     -1.523439748     -2.0930137512     -2.6720594149
C     -2.1170241308     1.4545162489     -2.9077304422
C     -0.7351124082     1.9515704205     -3.0456210731
C     0.2773052401     1.0514730431     -3.3469615485
C     -0.0130753446     -0.3631875908     -3.5834802591
C     -2.3859257866     0.0750526418     -3.0664657794
C     -1.3150258063     -0.8442688516     -3.4320229192


