58

 C     1.4973301839     0.0842360774     4.3558486681
C     0.7121632527     -1.1302031563     4.4181635953
C     1.4774999321     -2.1636320599     3.866674469
C     2.7029342099     -0.1324564865     3.6014915415
C     2.7681932707     -1.5442520399     3.3798402094
C     2.659186961     0.7586994234     2.4760485458
C     0.7249972734     1.1005441824     3.758355649
C     1.4664000486     1.6284499121     2.6498389883
C     -0.6064253257     -0.8207817756     3.8860060131
C     -0.5970063971     0.6099927287     3.4965604836
C     -1.1768871381     -1.7070317198     2.9810869203
C     0.9494151371     -2.9831564795     2.8131841617
C     -0.4053535863     -2.8186801772     2.4172499821
C     2.9899639263     -2.0238039646     2.1094167634
C     1.934823189     -3.0103200858     1.7643476592
C     2.9230966765     0.2814424446     1.1486370291
C     3.1241056377     -1.139177746     0.9855558538
C     2.3745668956     1.0174603827     0.0208825698
C     0.7851022193     2.1475895234     1.5626968453
C     1.4668581102     2.1194398363     0.2728659594
C     -1.3145533719     1.0951362893     2.3837513372
C     -0.6851102583     2.0787883652     1.5146275162
C     -2.0641556264     -1.2014614914     1.9460303328
C     -2.2643143289     0.1930937929     1.7344793972
C     -0.7638165786     -2.8700223851     1.0275830636
C     -1.9389575542     -2.0344481474     0.7998035025
C     1.5944922195     -2.8441288995     0.4271466939
C     2.4300892565     -1.751417431     -0.1030561568
C     0.2192397169     -2.8793124265     -0.0096052238
C     2.212750665     0.3938796387     -1.2739004902
C     2.0300291793     -1.0435828917     -1.22803475
C     1.6882384106     1.1372868481     -2.4082152811
C     0.8529899885     2.7614938671     -0.7937112801
C     1.1596467035     2.4571225352     -2.1556554454
C     -1.3549777465     2.5298897556     0.3198301345
C     -0.5634356286     3.1613451244     -0.7087780466
C     -2.8218832975     0.5697215206     0.5006119169
C     -2.5331148048     1.8556842127     -0.1270319748
C     -2.3174970451     -1.602739939     -0.4829654352
C     -3.0080092624     -0.3590474547     -0.5605771987
C     -0.1004520102     -2.3204754435     -1.3000525491
C     0.9578457416     -1.6113518064     -2.0387799526
C     -1.471366366     -1.95225607     -1.6227821662
C     1.1317074586     0.4076121393     -3.5115248429
C     0.6607680484     -0.9740026987     -3.2308713364
C     0.1679984691     1.0157313743     -4.3856819774
C     0.0737273171     2.9663831864     -2.9462588023
C     -1.0338547463     3.2875132822     -2.0104455772
C     -0.4250314851     2.2651523337     -4.0198709301
C     -2.9006880571     1.8015391862     -1.5142104159
C     -3.1272739981     0.3828078439     -1.8054126901
C     -2.2096988653     2.5954159729     -2.4689398046
C     -1.895440098     2.0350481925     -3.752514906
C     -1.7367915698     -1.3280120607     -2.8590875175
C     -0.6617032851     -1.081071139     -3.7756442113
C     -0.9269656748     0.0912431253     -4.5116426298
C     -2.6783788352     -0.189825317     -2.9887674341
C     -2.1530171674     0.6869082254     -4.0245968158


