58

 C     1.5710393124     -0.1412244452     4.2791581797
C     0.7310927268     -1.259043795     4.3641281652
C     1.2017023412     -2.2905916176     3.4569457162
C     2.5475265075     -0.4099244486     3.2707715583
C     2.3396586413     -1.7712493189     2.7558205601
C     2.4986717135     0.6489384931     2.3185450887
C     0.7618529832     0.9901670114     3.8154019189
C     1.3888915884     1.5703425797     2.7026914749
C     -0.5838022664     -0.8787467517     3.923617101
C     -0.6019088848     0.5462432916     3.6371293183
C     0.0830394184     -2.7499443658     2.6955383287
C     -1.0404689981     -1.8121401689     2.9342699784
C     0.2968741782     -3.1573518795     1.395950281
C     2.4939550423     -2.0188313788     1.3613702788
C     1.5722585154     -2.9313699732     0.7545869376
C     2.7875404512     0.4419359287     0.9526197582
C     2.970331478     -0.9341810033     0.4838812103
C     2.370905128     1.4954023356     0.0155253964
C     0.6308570464     2.2010291335     1.7005473177
C     1.2790145543     2.4206102887     0.4141975619
C     -1.3488613626     1.0117194618     2.5497695362
C     -0.8142022186     2.0990132108     1.7372453348
C     -1.8456617542     -1.3761239686     1.8632808836
C     -2.2062848656     0.0539875493     1.8317720753
C     -0.7295060796     -2.9919907253     0.3772135982
C     -1.8171505231     -2.1069112174     0.5809293165
C     1.3404577022     -2.9558873649     -0.6712015256
C     -0.0927270743     -3.0678451836     -0.9071933043
C     2.9429009605     -1.1450978143     -0.9127723322
C     2.1082040489     -2.1848226421     -1.5219452958
C     2.5902757757     1.2798758412     -1.3567749158
C     2.910164081     -0.0432720551     -1.7964421532
C     1.7083060716     1.8514693065     -2.3617886241
C     0.5380096956     3.0676964269     -0.5681931633
C     0.7907664165     2.831082334     -1.9958905594
C     -1.5909884849     2.6038285316     0.6357467205
C     -0.9023028004     3.2925321878     -0.4170079666
C     -2.9152242644     0.5309680671     0.7482031634
C     -2.8102935555     1.9041636006     0.2972165756
C     -2.4616772299     -1.5378740454     -0.5973238837
C     -3.2134993557     -0.3185073659     -0.4269981625
C     -0.6668407969     -2.4723958151     -2.0236254297
C     -1.9263367371     -1.781368928     -1.8937327644
C     1.5199322496     -1.6261112808     -2.7403486688
C     2.0990831365     -0.3404437985     -2.9415229749
C     1.3192563787     0.8012380961     -3.2871781922
C     0.1455583531     -1.7605969793     -2.9789315988
C     -1.9735887235     -0.7610229733     -2.9314659607
C     -0.0639197697     0.6656900041     -3.6777058602
C     -0.6481986111     -0.6368500941     -3.4853521566
C     -0.4324133186     2.9265368313     -2.6816251322
C     -1.4550629629     3.325862416     -1.7309745686
C     -0.9209991653     1.8190246191     -3.4787911683
C     -3.2938532307     1.9218092446     -1.0380992616
C     -3.475018007     0.5263699296     -1.4921647031
C     -2.7922258037     0.3741251924     -2.7639047954
C     -2.626330068     2.6111307286     -2.0433520015
C     -2.2887796135     1.6489287562     -3.131766191


