58

 C     1.4837523666     -0.0902637686     3.9512366546
C     0.6655326811     -1.2007695534     3.7445071014
C     1.1197809932     -1.9247030627     2.5638880689
C     2.4557354831     -0.0607158652     2.8746308971
C     2.2362951419     -1.2039524354     2.0047676848
C     2.4308946416     1.1835088441     2.2630614247
C     0.643410212     1.0693191276     3.7736068202
C     1.2261505467     1.9006948108     2.8032178458
C     -0.7211064402     -0.7866990508     3.7524182766
C     -0.7283727491     0.6614625805     3.5865573388
C     -1.627590537     -1.5695501046     3.0654406443
C     0.1886479188     -2.639387476     1.7389137837
C     -1.175524662     -2.6321990869     2.1437817982
C     0.5504981526     -2.8385258812     0.3236726328
C     2.4326195805     -1.1109937871     0.5980652916
C     1.7067824947     -2.0762708643     -0.2371594889
C     2.8113279365     1.3291362285     0.9020477298
C     2.9120955203     0.1529926007     0.0399527017
C     2.4796923031     2.5883980113     0.3541696757
C     0.4391946507     2.6084027505     1.8674057652
C     1.1971366509     3.211327214     0.8280307632
C     -1.5263015552     1.2342562077     2.528804772
C     -0.9508179102     2.2228117465     1.631060399
C     -2.7193607046     -0.9318950365     2.4296067935
C     -2.5890627135     0.425722469     2.0154751482
C     -2.2103641904     -2.8013829148     1.1481611305
C     -3.1513490987     -1.7309065142     1.3102273998
C     -0.4618164673     -3.2907310831     -0.550837752
C     -1.8720309092     -3.204988665     -0.1447570755
C     -0.3973188891     -3.008545441     -1.9761951959
C     1.7980364228     -1.9082325953     -1.6268243701
C     0.7343093398     -2.3850085661     -2.514286887
C     2.8561955426     0.3767182812     -1.3957319587
C     2.3659875508     -0.6959461714     -2.2055359981
C     2.5845189079     2.8408505237     -1.0234031717
C     2.6878869001     1.7122055696     -1.9170467263
C     0.5702215816     3.7262248247     -0.2965080385
C     1.4855199467     3.6871068894     -1.4214093687
C     -1.432795301     2.3221366026     0.2537869683
C     -0.6793130802     3.0900113602     -0.6782152405
C     -2.987762084     0.4670521507     0.6131751844
C     -3.4255536416     -0.8750446811     0.2213403261
C     -2.3395966827     1.3097079055     -0.3019998703
C     -2.5628717092     -2.6060752069     -1.2389390929
C     -1.6806103213     -2.5342894783     -2.376517236
C     -3.1886125703     -1.3352920104     -1.0790267831
C     -2.186550942     0.8566844063     -1.717593625
C     -1.8092790519     -1.254385823     -2.9917276054
C     -2.6180016658     -0.4400234584     -2.0731745694
C     0.5635629141     -1.4038222808     -3.5150273146
C     1.6056587031     -0.4171935936     -3.378483179
C     -0.6867100212     -0.7080036415     -3.6164751779
C     1.6749756483     1.9421736138     -2.939719639
C     0.8384350551     3.0226092994     -2.4631236889
C     -0.5105527565     2.6626941855     -2.0448252095
C     -1.1450466935     1.4808481534     -2.5537681771
C     1.0531917612     0.8737487646     -3.554830257
C     -0.4137742105     0.7069929761     -3.4978683539


