58

 C     1.2772110083     0.0340938908     4.0593986186
C     2.4554934382     -0.1475308115     3.3110333048
C     2.4629109613     -1.5308108667     2.7971142935
C     0.4465557976     -1.1916475016     3.9387248054
C     1.2151566669     -2.1446677401     3.1769533123
C     -0.8546487082     -0.8191985324     3.5410905071
C     0.4818975779     1.1412076267     3.8010612719
C     -0.8889536814     0.6374652154     3.5835024104
C     0.7822056402     2.0355397342     2.7331112263
C     2.7839516948     0.7284408925     2.2501180904
C     1.9330293711     1.8493780683     1.9011037683
C     2.9155406214     -1.5378988956     1.4710455963
C     3.2754878778     -0.1466388704     1.1768803923
C     2.2645277593     -2.334284041     0.4509360373
C     0.5571424408     -2.8988674423     2.2208296533
C     1.1755597859     -3.1399704849     0.9160672503
C     -1.5413562901     -1.5160544055     2.4647816194
C     -0.8861415842     -2.7044277711     1.999499881
C     -2.3750628348     -0.7681687964     1.5160912563
C     -1.4734694742     1.3462132844     2.5745373887
C     -0.4723540123     2.3334722005     2.0770780098
C     -2.3744945685     0.7027346916     1.6393920931
C     -0.5583454492     2.8088520949     0.7863002995
C     1.8506748186     2.2716237958     0.4860499439
C     0.637073219     2.8491216151     -0.0786353023
C     3.2781115203     0.2857308355     -0.098287
C     2.7437954016     1.619749018     -0.4287229778
C     2.236599876     -1.854980889     -0.9397793534
C     2.9473091327     -0.6269846435     -1.2034099911
C     1.1216173982     -2.165924158     -1.8377337412
C     0.1321053116     -3.4381892401     0.0207639186
C     -1.1526644645     -3.1584771272     0.7030781062
C     0.0634895627     -2.9779446745     -1.2867603584
C     -2.6661676789     -1.2952070641     0.188427478
C     -2.0002880439     -2.5099747367     -0.1862168039
C     -1.3425058453     -2.6032958563     -1.5026131263
C     -3.1221600027     -0.4255927314     -0.9175980354
C     -2.7250408248     1.4948744553     0.5674219913
C     -1.8717768259     2.6591610212     0.1922476867
C     -3.2940286059     0.9719492136     -0.6556335992
C     -2.0722689877     2.9081049386     -1.1343354188
C     -3.0660658157     1.9529028066     -1.6637483415
C     0.4092889816     2.8715159624     -1.5284716612
C     -0.9432074244     2.9718313177     -2.0541201064
C     2.4662000274     1.5857374933     -1.7894766368
C     2.5824819811     0.1879240262     -2.2659438308
C     1.3340495692     2.168132889     -2.3699554322
C     0.7418759031     -1.2653827982     -2.9374712632
C     1.504321833     -0.068740781     -3.1325428069
C     0.848555735     1.2157784316     -3.3834540843
C     -1.6860370356     -1.7564633202     -2.4914828985
C     -2.7514029731     -0.7674128345     -2.2770387649
C     -0.6444542877     -1.1813481274     -3.3494148566
C     -2.6378799001     1.595080262     -2.9340168306
C     -1.3345813047     2.2549100235     -3.2042568962
C     -0.473932592     1.2571754857     -3.7900045121
C     -2.5237184436     0.2292188302     -3.2546057772
C     -1.1912132532     0.0081650212     -3.8489097739


