58

 C     1.4661993004     -0.0912804503     4.8754861272
C     0.5916359092     -1.2347975577     4.9332691495
C     1.161841076     -2.3249041913     4.2926290872
C     2.5714943888     -0.46312481     3.9572697417
C     2.3674842411     -1.8019784024     3.5725740397
C     2.6279793527     0.5006577014     2.8958655478
C     0.7407971743     0.8895739931     4.1854171588
C     1.5000572649     1.4028866761     3.0894548654
C     -0.7082919461     -0.916742575     4.2744048548
C     -0.6308698579     0.4141771532     3.8189577512
C     0.2457392917     -2.7438873719     3.2650936068
C     -0.9737386918     -1.9436648677     3.3071122868
C     2.2210186392     -2.1359542852     2.1783871358
C     0.9317740921     -2.806190483     2.0177684123
C     2.89509853     0.1225347177     1.5440739747
C     2.6117682909     -1.2537753893     1.1301907997
C     2.634466026     1.1303053836     0.5930018972
C     0.8616083099     2.0355320036     1.9927737927
C     1.6714319497     2.1626120448     0.8554624779
C     -1.1968301083     0.7936784385     2.5562257333
C     -0.5849756202     1.8719087966     1.7589288772
C     -1.5711664008     -1.5956396951     2.0844655298
C     -1.919831042     -0.2059753596     1.8094164165
C     0.2174181601     -2.7086200621     0.8067966398
C     -1.173386725     -2.3367412564     0.8957234831
C     2.0772110977     -1.4743229027     -0.212401511
C     0.9156086993     -2.3112245989     -0.3968953533
C     2.5554693001     0.868476117     -0.8080303818
C     2.3247909786     -0.4669137879     -1.2576491119
C     1.1414923612     2.6030057929     -0.3963774419
C     1.8483985548     1.9503332142     -1.4626583127
C     -1.1131520612     2.2079260111     0.4880517562
C     -0.2408923451     2.8391406376     -0.5430555869
C     -2.4650085501     0.1388512891     0.5207144685
C     -2.267120063     1.4628765175     -0.0334943685
C     -1.8365819224     -2.0360346227     -0.2862337787
C     -2.7136876323     -0.9153479803     -0.4031888371
C     0.1645490342     -2.2656558213     -1.6503195939
C     -1.2649098936     -2.2707980137     -1.5919990917
C     1.7517778009     -0.5987398094     -2.5420754107
C     0.7417481799     -1.6230286903     -2.7893247185
C     1.3040558007     1.8331305699     -2.7607107722
C     1.4428708275     0.5370832384     -3.3889123635
C     -0.6910419274     2.9924972431     -1.8725467834
C     0.1141960417     2.6115105358     -3.0242719967
C     -2.7175275337     1.7030302577     -1.3575856757
C     -2.0620194374     2.6839503928     -2.2032316173
C     -2.934895817     -0.6798305824     -1.8044503361
C     -2.0794494085     -1.5958665926     -2.5713288288
C     -3.1538404744     0.6240401996     -2.2428343016
C     -0.0603428416     -1.189226963     -3.8609063246
C     0.4231393122     0.1180486729     -4.3018511486
C     -1.493875266     -1.1254302614     -3.7635635802
C     -0.8027407658     2.2346727846     -4.0813250566
C     -2.1440823822     2.3207494352     -3.5517251801
C     -2.7440233167     0.9878838762     -3.5962938142
C     -0.6657921801     0.9340947798     -4.6250387442
C     -1.9130457551     0.1405288497     -4.3192356093


