58

 C     1.2828286678     -0.0892089165     3.5847935186
C     2.4365067393     -0.4134596419     2.9345060031
C     2.3806733887     -1.8237993941     2.5265731229
C     0.4191240221     -1.281177822     3.6582788651
C     1.0711624777     -2.3230398453     2.8915228842
C     -0.8865371855     -0.8732089031     3.4305173
C     0.4780522461     1.0594895997     3.2278965959
C     -0.8822754368     0.6150176321     3.359449393
C     0.8574720475     1.9244451697     2.1696159201
C     2.8632237561     0.3898844657     1.8231011136
C     2.1418679041     1.6102663983     1.48679448
C     2.8360735376     -1.8806816565     1.2121915623
C     3.2673603112     -0.518856781     0.807215688
C     2.1713715766     -2.7084556207     0.232740666
C     0.3163899122     -2.9722196951     1.9123041363
C     0.8923849923     -3.256917202     0.6146338669
C     -1.7292090525     -1.598122867     2.4907307906
C     -1.0969672269     -2.6276799727     1.723017488
C     -2.7818983603     -0.88572823     1.8646289521
C     -1.8823591377     1.2883090608     2.7078152903
C     -2.9708778499     0.5376713748     2.148971429
C     -0.21669957     2.6347868679     1.4308131011
C     -1.5644930617     2.3729469667     1.789507667
C     0.0311613311     3.1252481062     0.0654608363
C     2.339849325     2.0806071447     0.1864243361
C     1.3381007263     2.9147886241     -0.4957588823
C     3.2996484045     -0.1176288251     -0.5575466727
C     3.0229678038     1.2800414083     -0.8144096616
C     2.3668228717     -2.3734414963     -1.1394349771
C     2.9587459934     -1.0719809632     -1.5479490266
C     1.3562123554     -2.658148096     -2.0766356271
C     -0.1950451962     -3.256379672     -0.331571639
C     -1.4047860698     -2.7779823761     0.3364388044
C     0.0293992746     -2.9418171913     -1.6579709383
C     -3.099670265     -1.06060045     0.4818441152
C     -2.3393495785     -1.935451458     -0.3386717962
C     -3.4619486824     1.2100566033     1.0295031709
C     -2.6412080405     2.4014523689     0.807157521
C     -3.5841484255     0.2390618854     -0.0312294891
C     -1.0465211321     3.2102090094     -0.8683719155
C     -2.3927689435     2.7902650733     -0.4937313294
C     -0.8519721113     2.8088781573     -2.2593505088
C     1.514496899     2.720950917     -1.8720361471
C     2.5126006315     1.6766694258     -2.0682162397
C     0.4098191956     2.4620283084     -2.7236507418
C     2.3012635564     -0.6414271805     -2.7696166099
C     1.288172022     -1.5821404685     -3.0425086576
C     2.0073050701     0.7355990777     -2.985210268
C     0.6609400233     1.1596883094     -3.3712119516
C     -0.8801772769     -2.0207362247     -2.3676283977
C     -2.0446963321     -1.5188895166     -1.7401553423
C     -0.0650949873     -1.1867719784     -3.2236053226
C     -0.3923880962     0.2038394739     -3.4356485475
C     -3.3172456846     0.6319894751     -1.3244167313
C     -2.9379184573     1.997258015     -1.5829307819
C     -1.9602346059     1.959422244     -2.5934285222
C     -2.5142918844     -0.2453378447     -2.1991590604
C     -1.7112144322     0.6004191062     -3.022392803


