58

 C     1.519596961     0.0017525994     4.1219928698
C     0.7053927994     -1.1698500928     4.040093115
C     1.3571651327     -2.1258324054     3.1423495625
C     2.58065315     -0.1446549274     3.2449186336
C     2.4865781837     -1.4609254543     2.559742732
C     2.7071152917     1.069475012     2.4613647259
C     0.7198417309     1.1349384971     3.6067760609
C     1.4504898881     1.8433338427     2.6346367599
C     -0.6114508147     -0.7585087197     3.7149936257
C     -0.5835443751     0.6661198617     3.311450824
C     -1.4264210002     -1.6358129214     2.9937199576
C     0.5564877047     -2.9298632817     2.3276482408
C     -0.8591177286     -2.8440767893     2.4832173272
C     0.7848352642     -3.003687109     0.8852780631
C     2.7140341118     -1.5057307867     1.1600219781
C     1.7882243204     -2.2499555806     0.2557522653
C     3.2739464574     0.9648967491     1.2343667983
C     3.4037415952     -0.3721745172     0.5952349109
C     2.9131193677     1.9211779152     0.2056965342
C     0.8033956158     2.3746112494     1.4936015754
C     1.6669050914     2.6451891818     0.3363438802
C     -1.2676164913     1.1094104197     2.1326512335
C     -0.6200878786     2.0912600802     1.2768039132
C     -2.3727477467     -1.1175236684     2.0267069991
C     -2.3011474987     0.2286005018     1.5513750114
C     -1.4942069364     -3.1170581888     1.2265091221
C     -0.5035205523     -3.2034153148     0.2143059318
C     -2.562334472     -2.1866707533     1.0612338709
C     -0.775923502     -2.7046710637     -1.092303065
C     1.5517033294     -1.8024520014     -1.1512062413
C     0.2527845113     -1.9799106901     -1.827188382
C     3.3083041412     -0.128357658     -0.7550351309
C     3.2204695629     1.3099060684     -1.0274174674
C     2.3958442351     -0.7934739393     -1.65506609
C     2.4480347416     1.5042396095     -2.1678167418
C     1.9411962591     0.1922414746     -2.6133247989
C     1.0456626397     3.034171663     -0.8511598456
C     1.5500921204     2.5888785183     -2.1531433402
C     -1.2350607144     2.4474739983     -0.0058582623
C     -0.4045229745     3.1300120241     -0.9508704268
C     -2.8739624922     0.54297192     0.2321911034
C     -2.4388840567     1.742233501     -0.4971667354
C     -2.9516231166     -1.8852280471     -0.2067857907
C     -2.1567791377     -2.3708203233     -1.3409544315
C     -3.4098268049     -0.556335459     -0.5251119645
C     -2.4984165835     -1.5821911805     -2.4282305376
C     -3.4274651673     -0.5116148137     -1.9449153924
C     -0.1386221795     -1.0895850571     -2.9339762879
C     0.7010063351     0.0779237238     -3.2747773423
C     -1.5469033343     -0.988823285     -3.2764337808
C     0.4733097248     2.5347875533     -3.0343160807
C     -0.7155896341     3.0791026373     -2.3448406489
C     0.0830369509     1.3410200323     -3.6952044625
C     -2.7505943049     1.8239047405     -1.9176778134
C     -3.1713657984     0.6316874021     -2.6221891215
C     -2.1152607774     0.3118442125     -3.6314336154
C     -1.8374188568     2.4564057901     -2.8151432621
C     -1.3525522978     1.4196332498     -3.791430556


