58

 C     0.9431773236     0.0853619458     4.0742807138
C     2.0891514957     -0.1834395856     3.3761282971
C     2.1030756288     -1.6006952206     2.9736071668
C     0.1044730468     -1.1483228541     3.9732443689
C     0.7816316691     -2.1078071662     3.1362484096
C     -1.1435701684     -0.7214981029     3.6222716604
C     0.1547414942     1.2262576079     3.7015213855
C     -1.19242848     0.7561767041     3.6389032573
C     0.6095290731     2.1153295188     2.6543381259
C     2.5160307623     0.5951188718     2.2301240361
C     1.8016702527     1.7373563333     1.8315299978
C     2.780542677     -1.705773622     1.7604201882
C     3.0409862747     -0.3610332751     1.248028743
C     2.3325417309     -2.693945188     0.8652684949
C     0.100803149     -2.6596016754     1.9725315641
C     0.9422521353     -3.1183331524     0.9384741334
C     -1.8263440612     -1.1612292594     2.4241321365
C     -1.2329201703     -2.1209004778     1.5717276525
C     -2.0860103052     1.1783342951     2.6540535212
C     -2.5131206269     0.0043317931     1.8854122909
C     -0.4227308317     2.8339373991     2.0035658602
C     -1.7866238825     2.3610076592     1.975110103
C     -0.1915486304     3.4353955423     0.7248967509
C     1.8600807523     2.0992942121     0.3880343112
C     0.9294494238     3.0498019145     -0.0994017767
C     3.0072928912     -0.1027065335     -0.137283924
C     2.4436238465     1.1727223101     -0.5890320292
C     2.6398271961     -2.5240134342     -0.4907062826
C     2.9570120882     -1.2579264312     -1.0198121199
C     0.4587973631     -3.2791935093     -0.4296260804
C     1.5500204393     -3.0737291764     -1.3000835354
C     -1.656853706     -2.1139228807     0.1650161061
C     -0.8431703952     -2.8151545469     -0.8252244999
C     -2.8256143367     0.1137501427     0.5304287567
C     -2.5716440895     -1.0694433932     -0.299496758
C     -2.289836013     2.5573547479     0.6389728637
C     -1.3680736233     3.4492778468     -0.0472404335
C     -2.8572877736     1.4758978949     -0.0725026616
C     0.4482695756     3.0385386117     -1.4599376908
C     -1.0077464297     3.2317662821     -1.4140703391
C     2.0137550483     1.2485769622     -1.9506068539
C     0.9860319336     2.1473057125     -2.3776982538
C     2.3226091899     -1.1674097493     -2.3373645984
C     1.4330933097     -2.3223814732     -2.4897737881
C     1.9012087939     0.0568380033     -2.7967139838
C     -0.9895452903     -2.4972049568     -2.2185469949
C     0.171910252     -2.163753879     -3.0453388601
C     -2.792828253     -0.921032945     -1.7024489209
C     -2.0514077739     -1.6648005157     -2.6340115392
C     -2.8087555626     1.5674558143     -1.5126425266
C     -1.8120995504     2.4369987963     -2.1988716889
C     -2.9436138516     0.4231571081     -2.2711440527
C     0.1383852123     1.4922638175     -3.3835217741
C     0.7010325916     0.1821819861     -3.6275694926
C     -0.1411235026     -0.9451718124     -3.7800179693
C     -1.5531489526     -0.743910286     -3.6758251165
C     -1.259280969     1.6623555864     -3.3054203091
C     -2.0956793908     0.5101897226     -3.4663360622


