58

 C     1.6411547441     0.207294237     4.3178605539
C     0.8337516976     -0.9814771918     4.3072791735
C     1.4942719099     -1.9426681947     3.5168524133
C     2.6800016588     0.055831118     3.3223797298
C     2.6471634773     -1.2768787538     2.8662432079
C     2.5418245971     1.114279673     2.3528811878
C     0.8241277249     1.2972232573     3.9153636538
C     1.4904456811     1.99783734     2.8461657463
C     -0.5259204239     -0.5867110403     3.9444403794
C     -0.529785783     0.870425256     3.7045795156
C     -1.2430957481     -1.3793408718     3.0627474052
C     0.7940987908     -2.6678438712     2.5175136901
C     -0.6012011204     -2.5132882707     2.3984732288
C     2.5790900333     -1.558050695     1.4847652519
C     1.5611762103     -2.5786815555     1.2794827641
C     2.6245601637     0.8649669878     0.9380697903
C     2.6809137996     -0.5134299069     0.4834391719
C     2.0426625703     1.8544063878     0.0297016068
C     0.7113121215     2.6765090936     1.9430992143
C     1.1414098426     2.8048878747     0.5822283683
C     -1.3219347211     1.4550149468     2.6607284032
C     -0.7451664228     2.5626638105     1.9513598612
C     -2.1741671965     -0.8013933909     2.0964990645
C     -2.2568404474     0.6129201229     1.8960614759
C     -1.2199203913     -2.6757724396     1.1231209124
C     -2.2737633342     -1.6795399649     0.9778961696
C     0.9790105308     -2.7647973687     0.031932133
C     -0.4679078072     -3.0052808278     -0.0217956825
C     2.2986722983     -0.8491036903     -0.8740193372
C     1.6072029433     -2.1068484887     -1.1108607693
C     1.944352108     1.5721517131     -1.3955655424
C     2.1775828061     0.217267413     -1.8731130321
C     1.0620678835     2.411498052     -2.1811189245
C     -0.0096504806     3.2243844677     -0.1681075874
C     -1.1954313468     2.9360592441     0.6554498721
C     -0.0325086637     3.0996575328     -1.5245726861
C     -2.7325899319     1.0635516043     0.6200559659
C     -2.2604588663     2.2897395504     0.0263758418
C     -2.7074880237     -1.2230035985     -0.3128856557
C     -3.0012745527     0.1653650556     -0.4692507079
C     -1.1157894677     -2.8555937274     -1.2824158346
C     -2.2395784431     -1.9131918955     -1.4518381115
C     1.0086550137     -2.3415517826     -2.3741673232
C     -0.3592637763     -2.7919621523     -2.4332043783
C     1.7226246323     -0.137948767     -3.2078542398
C     1.1789567149     -1.4130402774     -3.4310737722
C     0.5588061588     1.9947366309     -3.4392284295
C     0.91888776     0.7932926447     -3.9977832735
C     -1.2797190384     2.7142624373     -2.2180500991
C     -2.302320194     2.1568704172     -1.4178741306
C     -2.7789655775     0.8385865429     -1.7404982552
C     -0.9227145935     2.0967005883     -3.4194329479
C     -2.1586202019     -1.298629163     -2.7645120219
C     -1.0655441224     -1.9387075463     -3.417544129
C     -0.1241413426     -1.2346846468     -4.1601213535
C     -0.3121994771     0.1177071569     -4.4116409758
C     -2.3419933294     0.132232473     -2.921561579
C     -1.4448290169     0.8310964798     -3.8329549829


