58

 C     1.2492875565     0.0373162777     3.6102364425
C     2.4492890594     -0.2437887426     3.0192894765
C     2.435077105     -1.6440149056     2.5236982101
C     0.3976856359     -1.1555093027     3.4745679761
C     1.1209262469     -2.144631055     2.6751923611
C     -0.8603995036     -0.7376249179     3.11832509
C     0.4894473668     1.1891363625     3.1999308283
C     -0.8640112344     0.749663234     3.0706937417
C     1.0400650226     2.1277375099     2.2635703949
C     3.0366163786     0.6127481318     2.0274772697
C     2.3709519511     1.837020158     1.6674233179
C     3.0934344167     -1.6382036561     1.2808511454
C     3.5803721641     -0.2722164029     1.012865942
C     2.5394207611     -2.3853020173     0.2312023712
C     0.4573969034     -2.7894360838     1.5803484421
C     1.2534004484     -3.0117279051     0.4136583827
C     -1.6714690859     -1.5050798587     2.1876081382
C     -1.0087807185     -2.5840137858     1.4101057269
C     -2.7924602786     -0.8478596042     1.6743854932
C     -1.7963004457     1.4239648276     2.268995784
C     -2.8908539227     0.6453060565     1.7392075405
C     0.0817245358     2.8459943821     1.4801515092
C     -1.3220681727     2.5493880936     1.5233985397
C     0.3850383379     3.2961382044     0.1270935089
C     2.6331701322     2.3190555804     0.3386413532
C     1.6110910144     3.0248661627     -0.4393838999
C     3.6808711673     0.1626604902     -0.3053903124
C     3.3450340806     1.5100157256     -0.5772399962
C     2.5780263886     -1.8734719201     -1.1325637053
C     3.148100457     -0.6470371117     -1.4119610148
C     0.627095086     -3.096359667     -0.8896116314
C     1.3684116069     -2.2953566826     -1.8261824689
C     -1.5981919316     -2.9437638677     0.1851534963
C     -0.7510755873     -3.2054403069     -0.9893591096
C     -3.4155775271     -1.2694970069     0.440456351
C     -2.8107486161     -2.2975198958     -0.3054842506
C     -3.5347276936     1.0635989374     0.5869982966
C     -3.861752168     -0.0992823217     -0.2404292653
C     -1.9085827062     2.8457489239     0.2170345513
C     -0.8362195571     3.2257611863     -0.6671688552
C     -2.9788124589     2.0924748776     -0.2600462412
C     -0.8010012954     2.7080895952     -1.9667404477
C     1.6569687662     2.5274769549     -1.8185885379
C     2.691589504     1.5714461333     -1.8793217006
C     2.473698522     0.2569331781     -2.3484112467
C     0.4690815201     2.2521083607     -2.5058000689
C     0.6938392775     -1.4511336924     -2.7584831823
C     1.2150340941     -0.0909211282     -2.9573090168
C     0.2719301474     0.9700958143     -3.1321926594
C     -1.375970208     -2.6345183487     -2.1218033083
C     -2.6756146031     -2.1084666062     -1.7140880768
C     -0.715279908     -1.6840593433     -2.9241627154
C     -3.4932481854     0.1771496816     -1.5719941628
C     -2.9414761091     1.5421107921     -1.61206969
C     -1.8358854062     1.803501098     -2.4140069071
C     -1.1678379964     0.7151040051     -3.1441358408
C     -2.8757903683     -0.8562798049     -2.329705265
C     -1.6599399168     -0.5700948041     -3.1049280635


