58

 C     1.0900252884     -0.0855887892     3.9443646748
C     2.2261383925     -0.3955841961     3.2463912625
C     2.1335735485     -1.7712992504     2.7284800249
C     0.2232725011     -1.29336569     3.8974219669
C     0.8414646746     -2.2895165769     3.0153784806
C     -1.0388179109     -0.8551939268     3.6177805132
C     0.3038418622     1.0738550868     3.5361312725
C     -1.0338677373     0.6195953003     3.4584185384
C     0.7785103837     1.9851762448     2.5462296105
C     2.7343884146     0.4635391252     2.2119819767
C     2.1114014294     1.7319757337     1.9731892337
C     2.6589153359     -1.7398367837     1.4223231335
C     3.0775028455     -0.3621442421     1.0951390728
C     2.0152274527     -2.48004766     0.440804297
C     0.0762275177     -2.9001999734     1.9676411838
C     0.7777425959     -3.1377415545     0.7278445687
C     -1.8471887242     -1.4278049478     2.5823321937
C     -1.3518592822     -2.5398711864     1.8223065192
C     -1.8524713767     0.9146060525     2.3620646766
C     -2.4668785036     -0.3305945621     1.8915915131
C     -0.2188487669     2.600232336     1.6570621249
C     -1.5115367732     1.9507908563     1.4521661262
C     0.2708462831     3.4252388144     0.5985975261
C     2.4439681866     2.3132062321     0.7259712045
C     1.6215626101     3.3272800671     0.1906153638
C     3.0372735007     0.1156173406     -0.2500380423
C     2.9169708086     1.516017293     -0.3936432428
C     2.0105912888     -2.0421046506     -0.9617789433
C     2.5201039853     -0.7630923524     -1.3227804928
C     0.0980728617     -3.2749960322     -0.5375754654
C     0.8795187563     -2.6122631799     -1.5978853742
C     -1.9953137139     -2.7370308735     0.5798217251
C     -1.2882559491     -3.271695719     -0.5910884678
C     -2.9615859463     -0.4481972505     0.5795057756
C     -2.9408181609     -1.7825946162     0.0471687618
C     -2.1406774478     1.9048568353     0.1246147263
C     -2.866764757     0.7223276944     -0.3091557772
C     -0.4893734194     3.5660255828     -0.6139409711
C     -1.6115483153     2.7884456294     -0.8844940246
C     1.6974572098     3.3058721483     -1.2743470518
C     2.4084349917     2.1196044229     -1.6268016286
C     0.4189733057     3.5334679091     -1.7816173309
C     1.9479410898     -0.1568915956     -2.4839017565
C     1.88615364     1.2879682481     -2.6278782301
C     0.2369970777     -1.968370436     -2.7040502066
C     0.8169150709     -0.738954527     -3.1554488789
C     -1.9278221711     -2.8096239393     -1.7763630297
C     -3.0077035523     -1.9692805294     -1.3691488428
C     -1.1955208938     -2.1437736536     -2.8377498378
C     -2.9488907088     0.4625579209     -1.7320853929
C     -3.0289117799     -0.8530795553     -2.2188537899
C     -1.9728551653     -1.0260723902     -3.2342387137
C     -1.5048090487     2.3639064086     -2.2945443894
C     -0.1483333525     2.6838927666     -2.7595849142
C     0.6249678854     1.6112284304     -3.2742336766
C     -0.0120782709     0.3667071616     -3.6287521191
C     -2.1183501748     1.2176624584     -2.6853198127
C     -1.4038989121     0.2351565204     -3.5160375937


