58

 C     1.1569119205     -0.0882673219     4.1116580592
C     2.2761392426     -0.295744132     3.3435308799
C     2.1434997989     -1.586838526     2.6380556871
C     0.2846311442     -1.2918154813     3.9054922364
C     0.8719310406     -2.1411246064     2.8637337455
C     -0.9908454285     -0.8422854513     3.7779128348
C     0.3498548546     1.0963661745     3.9148037842
C     -1.008919272     0.6441034655     3.8276619187
C     0.7853399807     2.0547433876     2.9642653202
C     2.732275953     0.6572378053     2.3636106363
C     2.0159447702     1.8396850236     2.2130712777
C     2.6708528656     -1.4575560171     1.3451925971
C     3.102016653     -0.0892678796     1.156024737
C     2.0829346552     -2.1898981356     0.2723459966
C     0.0876780598     -2.5933307086     1.7340065147
C     0.7514274092     -2.7599593471     0.436579414
C     -1.8286248718     -1.285698842     2.6993301438
C     -1.3474478669     -2.2719859195     1.7523759762
C     -1.8726133257     1.0615397498     2.8210986604
C     -2.5141029622     -0.1363537392     2.2240225464
C     -0.1564899088     2.6112368142     2.0197024818
C     -1.4944952118     2.130661115     1.9241620236
C     1.8532756988     2.4018205643     0.8679552659
C     0.5519752509     2.9583343257     0.787734931
C     3.0809634242     0.4903037473     -0.1320658844
C     2.4797058443     1.8285439853     -0.2865381118
C     2.5271015177     -1.7656449253     -1.0052119584
C     3.0054437743     -0.4308328962     -1.214786198
C     1.8060910528     -2.1424046424     -2.1786023104
C     -0.0577233317     -2.9429228505     -0.7815366833
C     0.5078800117     -2.6576062462     -2.0876209885
C     -2.070839891     -2.3386499122     0.5500974239
C     -1.4682647123     -2.817508002     -0.6777618281
C     -3.0826378599     -0.1073002303     0.9271674826
C     -3.061090643     -1.3386518288     0.2026964144
C     -2.1340703584     2.1705474024     0.6400609743
C     -3.0198362317     1.1226785318     0.1887851529
C     -0.1124322479     3.0881951552     -0.4655386472
C     -1.5061085267     2.761917527     -0.5155184879
C     1.9371328289     2.1755819506     -1.5473095287
C     0.6745817939     2.8668144522     -1.6386074258
C     2.5573764104     -0.0103172947     -2.5532174318
C     1.8861983881     -1.1003538929     -3.1714716591
C     2.0532279901     1.2867649424     -2.7158368065
C     -0.2659296176     -1.9764558633     -3.1514489559
C     0.5864744253     -0.9545224494     -3.7535896672
C     -2.2138770207     -2.2533103526     -1.7610442443
C     -3.136976739     -1.3095110332     -1.2159849365
C     -1.6071027404     -1.7125183724     -2.9312586525
C     -2.9975005702     1.1159274457     -1.2533710685
C     -2.0720512726     2.1452758544     -1.6895828695
C     -3.0435284436     -0.0977271341     -1.9561484348
C     -2.138902559     -0.3447450746     -3.1017346766
C     0.0368314574     2.4068474342     -2.8339500313
C     0.878875749     1.4510745268     -3.5086272238
C     0.079806618     0.3472230742     -3.9425449669
C     -1.3029223687     1.9604934455     -2.8482496253
C     -1.3090466016     0.657191188     -3.5539757935


