58

 C     1.1295696911     -0.2195223854     4.1912479904
C     2.2445086152     -0.4496790122     3.4068292452
C     2.1705307809     -1.789624843     2.8102392832
C     0.2736820953     -1.4251704938     4.0969090875
C     0.9088624238     -2.3694211011     3.1924957368
C     -1.0156239448     -0.9906454595     3.851447177
C     0.3011525778     0.9512129835     3.9543289214
C     -1.0504609657     0.4768377766     3.8053334923
C     0.7458623543     1.9144174988     3.0414736633
C     2.6589617328     0.474178866     2.3765805635
C     1.9835223301     1.6932908925     2.2631903112
C     2.5519588426     -1.6859650697     1.4660066404
C     2.9095031914     -0.2785853138     1.1730628517
C     1.8812145378     -2.4430556534     0.456155234
C     0.1380102179     -2.9503676394     2.1790252761
C     0.696747409     -3.1284412569     0.865870259
C     -1.7925869298     -1.4896204893     2.7405693363
C     -1.2660524456     -2.534207415     1.9744693011
C     -1.8441165781     0.8563326932     2.7147884289
C     -2.36388809     -0.3609073357     2.0495545519
C     -0.1880068973     2.5321677348     2.1389513805
C     -1.481911877     1.9750496569     1.9022836409
C     1.8328126401     2.2875623093     0.9735443066
C     0.5617884702     3.0022270849     0.9900653348
C     2.7186157038     0.2634233032     -0.1111983043
C     2.2395797233     1.6447254808     -0.2248998995
C     2.0251629595     -2.0209922398     -0.9348946389
C     2.5045231507     -0.6670173549     -1.2330188474
C     1.142104599     -2.6294246155     -1.8756758548
C     -0.4066204624     -3.1840931895     -0.0735818996
C     -1.5696941669     -2.5959524158     0.580536712
C     -0.1807425156     -3.0267671192     -1.3989829681
C     -2.6245135174     -0.3737164643     0.6670031646
C     -2.2941423493     -1.5807748132     -0.0973690539
C     -2.0857102489     2.0919572179     0.5772785554
C     -2.7190414726     0.9184451114     -0.0340098207
C     -0.0820724694     3.3348016101     -0.1533058331
C     -1.5100423922     3.0606690946     -0.2975099662
C     1.6528583453     2.1182723816     -1.4903310395
C     0.5548972996     3.0810255688     -1.4490560477
C     2.2091015178     -0.0985021826     -2.4993102197
C     1.722166892     1.285682825     -2.6180998886
C     0.9304179529     -2.0610497828     -3.1436912462
C     1.5157307331     -0.8549487402     -3.4885251979
C     -1.178364147     -2.3502861529     -2.2333844716
C     -2.1699042929     -1.5122642359     -1.5635461763
C     -0.5330580301     -1.9337690387     -3.4020051876
C     -2.8767142223     0.880983109     -1.4438727032
C     -2.5406629888     -0.3263576948     -2.2162600594
C     -1.7474933682     3.0187097539     -1.6822773722
C     -0.4524782324     3.0888750405     -2.4189600047
C     -2.4865953365     1.9928586484     -2.2457833304
C     0.6740357665     1.3166435546     -3.6564218943
C     0.491157931     0.0010928621     -4.1073573727
C     -0.7821684101     -0.6598734776     -3.9775769089
C     -1.8799344834     0.0967400169     -3.4660903801
C     -0.4793664723     2.1384657757     -3.4735442538
C     -1.7670731278     1.4943541047     -3.4286996045


