58

 C     1.4223144211     0.1093852676     4.4011385681
C     0.6593759039     -1.0314206473     4.061618646
C     1.4764198366     -1.9589524321     3.3469516077
C     2.6223807224     0.0458583392     3.5424299629
C     2.6969302207     -1.2208847425     2.9504705884
C     2.67801127     1.1834984929     2.688022726
C     0.6962626095     1.2351259109     3.9355813999
C     1.5400518544     2.0365722404     3.1001436389
C     -0.5871749623     -0.6076138138     3.4242663125
C     -0.5838695008     0.8458099691     3.3798240664
C     -1.1324849592     -1.3319157188     2.3548949136
C     0.982274062     -2.6325331423     2.2393486729
C     -0.3875916899     -2.4800143409     1.8198600627
C     2.8743892887     -1.3976098447     1.5463338663
C     1.9838766135     -2.4760328835     1.1735018582
C     2.9416367008     1.0439736175     1.2709796551
C     2.9848308664     -0.2823769702     0.6494124117
C     2.5053468406     2.1234325768     0.4415593567
C     0.9503458834     2.8921102202     2.2005094996
C     1.6584315252     3.1575180311     0.9804347711
C     -1.1440335363     1.5669652183     2.2714238145
C     -0.4457105986     2.7411885063     1.8413968899
C     -2.0423144598     -0.6106218872     1.4374795488
C     -1.9703196945     0.8522387248     1.2998003967
C     -2.6166266483     -1.3446432718     0.4051911932
C     -0.7284145404     -2.9643965626     0.5130669976
C     -2.0080691069     -2.6193753107     -0.020570575
C     1.6347163342     -2.6633428607     -0.1265513848
C     0.3179037815     -3.1550350954     -0.4552221811
C     2.5263429205     -0.4537782133     -0.7576870794
C     1.9882024885     -1.7006791414     -1.1360571436
C     2.1872679924     1.9624354222     -0.9712799569
C     2.1155483201     0.6883730107     -1.5858007032
C     0.7328404613     3.5199092399     -0.0094463311
C     -0.5773030714     3.1777661179     0.4780506454
C     1.1670315098     2.953742488     -1.2620658204
C     -2.31687646     1.4509205841     0.0104067038
C     -1.5332680517     2.6135834648     -0.4062625464
C     -3.2290663003     -0.7347300806     -0.748582395
C     -3.0092755627     0.656553676     -1.0183290206
C     -2.3014331534     -2.7976392772     -1.3693288254
C     -3.1706880393     -1.70832867     -1.8037816622
C     0.0928116186     -2.9062540224     -1.8421395047
C     1.0562128171     -1.8934708835     -2.2487547622
C     -1.2252329297     -2.8806904316     -2.3362183593
C     1.2054101496     0.5013193966     -2.7495265858
C     0.6891416845     -0.8413664858     -3.1071916254
C     0.2206496806     2.7081265963     -2.1956824937
C     -1.2138891142     2.7437032752     -1.8065809022
C     0.3713970132     1.5988366265     -3.1096369101
C     -2.8790910073     1.0219640459     -2.4240098663
C     -1.8942927208     2.0051247227     -2.7503143068
C     -0.9222464041     1.4096248594     -3.702685126
C     -2.8229182866     -1.3414474791     -3.109695109
C     -1.5137506403     -2.0037611762     -3.4091665218
C     -0.5999111508     -0.9949414155     -3.8060633744
C     -2.7272707447     0.0007541778     -3.4298769047
C     -1.395232047     0.1874419618     -4.0655907873


