58

 C     1.5159881077     0.1088026168     4.0436365467
C     0.7228610616     -1.1081467801     3.8753724255
C     1.3102260886     -1.878318965     2.8299539022
C     2.5727322668     0.1202812495     3.0834055137
C     2.5176915611     -1.1367873449     2.4174170337
C     2.4266061201     1.3086204991     2.289084325
C     0.7030207032     1.2279890362     3.8962320091
C     1.2198676646     1.9997412843     2.7688245379
C     -0.6447588223     -0.7366795315     3.839183982
C     -0.6768368297     0.7572158022     3.8874096969
C     -1.4747114799     -1.3888272723     2.923356813
C     0.4870946569     -2.473194596     1.810574758
C     -0.9217076581     -2.3039348789     1.9533288327
C     1.0161690776     -2.6716886547     0.4403315744
C     2.9010223477     -1.1767649953     1.0904395285
C     2.2849131385     -2.106378504     0.1513151774
C     2.7304602132     1.2908499336     0.9139239673
C     3.198788707     0.0312134704     0.3835598192
C     1.9818630574     2.1498453316     -0.0112859608
C     0.3338976016     2.5833100786     1.8413229621
C     0.7199775957     2.7310780711     0.4202898313
C     -1.5713579529     1.4280945862     3.1097604439
C     -1.0890039463     2.4727066483     2.1695184003
C     -2.5698861591     -0.6802655754     2.2762695669
C     -2.6603807081     0.7065755754     2.4191795187
C     -1.7764973815     -2.2804544631     0.7835769588
C     -2.7779087817     -1.2609291532     0.9692066225
C     0.1150732951     -2.8988091115     -0.6977749147
C     -1.3273570361     -2.657408042     -0.5067303796
C     0.6391672873     -2.7398038067     -2.0204466529
C     2.6314610456     -1.653116456     -1.1629420539
C     3.1400178577     -0.2804394982     -1.0218856449
C     1.8663464379     -2.0101942428     -2.247653024
C     2.2073623863     1.9399203913     -1.4100503376
C     2.7923632567     0.6847652076     -1.9317996141
C     1.2358056769     2.3008637174     -2.3478954481
C     -0.3319438423     2.9134362829     -0.5878087328
C     -0.0676386204     2.6504902949     -1.9578582406
C     -2.0290313412     2.5616749282     1.1613861421
C     -3.0300516934     1.4921138317     1.2930606076
C     -1.7001101212     2.7240541582     -0.2067779417
C     -3.1947230038     -0.467777408     -0.1545313504
C     -3.2518275691     0.9636555191     0.0286891471
C     -2.5267614375     1.8194671014     -0.9445554046
C     -2.1019973507     -2.146579387     -1.6040663395
C     -2.8761369132     -0.9567554036     -1.4338772379
C     -0.2228381649     -2.3812380424     -3.1170948957
C     -1.5449395822     -2.0857594261     -2.9231732011
C     1.6699929198     -1.0464315397     -3.3541707161
C     2.101342063     0.3027973517     -3.1700600635
C     1.1729386047     1.3251174428     -3.4458271802
C     0.4021099399     -1.2876329611     -3.9032992682
C     -0.9794307082     1.8636793995     -2.8003827811
C     -2.1582603871     1.3270350008     -2.2246498077
C     -2.5328432706     -0.044713967     -2.5543491809
C     -1.812130405     -0.7577475599     -3.504010016
C     -0.1878655437     1.079812865     -3.7619920191
C     -0.5782240002     -0.2484300993     -4.0626622671


