58

 C     1.5323992659     0.0664854356     4.1759633184
C     0.8059250879     -1.0954611215     3.9453524372
C     1.5358054562     -1.9906425925     3.044687783
C     2.6456786976     0.0631660159     3.2538987713
C     2.7334527961     -1.2462239218     2.6610582809
C     2.5227470371     1.1844885581     2.3993314838
C     0.6776205322     1.1948835249     3.8431095209
C     1.3599339186     1.9671158686     2.8623341695
C     -0.5778810308     -0.7140282109     3.6487650771
C     -0.6542851834     0.7641252013     3.5822885478
C     -1.2602626816     -1.444533494     2.7179196152
C     0.8171623053     -2.7312670342     2.067731798
C     -0.6249029401     -2.5371512786     1.9738601435
C     1.4858180843     -3.0247954783     0.8237514181
C     3.207825089     -1.3287073819     1.3509184008
C     2.7017871401     -2.3700765795     0.5382508128
C     2.7760981461     1.0865769819     0.9629814738
C     3.2521726538     -0.1475711718     0.4875896891
C     2.0486020434     1.9633039968     0.025579756
C     0.6020416228     2.6565065769     1.9398333375
C     1.055979758     2.8185070801     0.5660517407
C     -1.4369626582     1.4081084389     2.5786580952
C     -0.8339134353     2.5247812068     1.9122131714
C     -2.2559829035     -0.8132756508     1.8524261017
C     -2.3820999312     0.6066428016     1.7747307314
C     -1.3003361969     -2.6250119312     0.746681105
C     -2.3853145218     -1.6162978395     0.6987575773
C     0.765664718     -3.1272903572     -0.439318361
C     -0.6385999205     -2.9840600604     -0.4881440881
C     2.7079365067     -1.9668378356     -0.8598975959
C     2.9374225669     -0.584314741     -0.8880504824
C     1.5653868985     -2.4998407948     -1.4899470034
C     1.8996561683     1.5850430436     -1.3918901545
C     2.2355777342     0.2367978912     -1.8238578943
C     0.9486437985     2.302513102     -2.1815487183
C     -0.0944322433     3.233779451     -0.1929638791
C     -1.2756286226     2.9499806968     0.609579027
C     -0.1277010975     3.0711710934     -1.5570197911
C     -2.8869626179     1.1233154646     0.5484733764
C     -2.3720624698     2.3662803096     -0.0130258068
C     -2.8969456229     -1.1079739932     -0.520941372
C     -3.2346980302     0.2803530526     -0.5625091192
C     -1.2204195177     -2.5620505103     -1.7138519086
C     -2.4542332411     -1.7389074206     -1.7501297844
C     0.9730357469     -1.8182303343     -2.5708564589
C     1.4285268466     -0.4407444792     -2.8520413264
C     -0.4077486987     -2.138312751     -2.8056023996
C     0.4102142927     1.722532876     -3.3444158741
C     0.5944476189     0.3673779534     -3.6847959082
C     -1.3798395833     2.7863760171     -2.2424793123
C     -2.4570529928     2.3007139521     -1.4564598489
C     -3.0987069672     1.0460444014     -1.8075145163
C     -1.0380383464     2.0748998958     -3.4285359355
C     -2.5045234186     -1.042650314     -2.9520436118
C     -1.2174083082     -1.2859684272     -3.6280771617
C     -0.7218280709     -0.1065720151     -4.1089213268
C     -2.7616035412     0.3818037593     -2.9980271224
C     -1.7271877069     0.955123093     -3.8399099688


