58

 C     1.423002186     -0.2437610526     4.4676743619
C     0.6438504238     -1.3610345619     4.3383826806
C     1.2703864795     -2.3135737557     3.4019828883
C     2.5901820201     -0.3947492522     3.5823788848
C     2.5117127795     -1.7140141124     2.9398662322
C     2.6448711583     0.7341357401     2.7757094844
C     0.6478927953     0.9150213219     4.04570317
C     1.4042364159     1.5553540433     3.0721074875
C     -0.6725753546     -0.9933759252     3.8478202589
C     -0.673960542     0.4430595335     3.6086204474
C     0.2923571482     -2.6569253978     2.4641943219
C     -0.9307526227     -1.8280423897     2.7541763777
C     0.6281432699     -2.8959586204     1.0878661077
C     2.8107628471     -1.8135200689     1.5808502243
C     1.9514682575     -2.5625563138     0.695375903
C     3.0920852177     0.6518684521     1.4012960254
C     3.2260175191     -0.6379479598     0.8094733917
C     2.73576675     1.704338274     0.5343507045
C     0.7838116724     2.2749278737     2.0128176283
C     1.6518649263     2.6402519062     0.9427293937
C     -1.2697126241     0.9521099479     2.4350710166
C     -0.6292767381     2.0663217853     1.7211770111
C     -1.7133085461     -1.3753305883     1.6800328155
C     -2.0316505594     0.0357471101     1.5884245477
C     -0.4346574355     -2.8369931634     0.0944392314
C     -1.6822260667     -2.1590021657     0.4545170622
C     -0.0816045992     -2.7972050188     -1.278271295
C     2.1715300014     -2.0750112748     -0.6539200234
C     2.8978480812     -0.8339746833     -0.5861797421
C     1.2245272175     -2.2615351389     -1.6253487538
C     2.6448043067     1.5428437275     -0.8835112812
C     2.5645709755     0.2339884998     -1.468978254
C     1.1093531066     3.1813616365     -0.2010389264
C     1.7564937723     2.553514525     -1.3698068876
C     -1.1716234515     2.5053763131     0.4519509661
C     -0.2803194212     3.1642643031     -0.4477493805
C     -2.6945370879     0.5204738799     0.4051893853
C     -2.3423329658     1.8293082226     -0.1402928433
C     -2.5632672428     -1.7713189863     -0.5463663614
C     -3.2355899841     -0.4688554187     -0.4816212631
C     -0.995588427     -2.3899914522     -2.2967065848
C     -2.3148044288     -2.0579748621     -1.9455584433
C     1.0297855238     -1.2897789229     -2.6857256234
C     1.6059428861     0.0070180405     -2.5775851863
C     -0.2850446408     -1.5142041957     -3.2429376207
C     0.8416784794     2.3726198969     -2.3798531904
C     -0.4244203164     2.9721502482     -1.8878025824
C     0.7884157146     1.1147592504     -3.1137870597
C     -2.6803491242     2.1018724364     -1.5036418379
C     -1.6111440727     2.5855969572     -2.4026973607
C     -3.6517334599     -0.1292362888     -1.78628336
C     -3.0236559448     -1.0985506917     -2.7258929546
C     -3.4057596562     1.1527705522     -2.285282365
C     -0.9665313483     -0.4961198227     -3.907010273
C     -0.4206158771     0.8523226561     -3.7992806996
C     -1.5852579515     1.7273107361     -3.5846643742
C     -2.4184908433     -0.4085668352     -3.7801278257
C     -2.7525705691     0.9884210401     -3.6062556167


