58

 C     1.3866909755     -0.2193267322     4.5400967199
C     0.6030102092     -1.4107460441     4.5040354266
C     1.2015678958     -2.2650999747     3.5565657551
C     2.4962520315     -0.3730908379     3.6096183474
C     2.4158099448     -1.6520212553     2.9864853254
C     2.6006484325     0.8055464879     2.7815110406
C     0.6147034659     0.8295756182     3.9879272728
C     1.3739377343     1.5868042397     3.0039935786
C     -0.6900223611     -1.0630136582     3.9008540636
C     -0.7167364237     0.3370159765     3.636581235
C     0.194102853     -2.7589101156     2.6412005944
C     -1.0272509205     -1.9479967689     2.83120454
C     0.5572741505     -3.0520301276     1.3561600498
C     2.6907157825     -1.7862106518     1.5762456457
C     1.8601388345     -2.664600872     0.7969049035
C     3.0282336926     0.6715014415     1.4782828806
C     3.1609824739     -0.6391568073     0.8574366126
C     2.5545408115     1.5885806993     0.4589022199
C     0.714975167     2.196297376     1.9422145346
C     1.425280738     2.4014674133     0.6593017294
C     -1.3473387746     0.8282694748     2.4814589742
C     -0.7470471988     2.0067494162     1.8466746575
C     -1.7548677642     -1.4826662445     1.7092028503
C     -2.0889186042     -0.0756426131     1.6138165312
C     -0.4247573864     -2.966189346     0.2973234974
C     -1.5987198073     -2.1917960272     0.4244993211
C     1.6776725935     -2.5033808003     -0.60060785
C     0.3182954882     -2.9226507389     -0.9302705626
C     2.9395997095     -0.466650798     -0.5536733537
C     2.7407891304     0.948686249     -0.8203197121
C     2.2262867713     -1.4052590096     -1.3497281329
C     2.0504540396     1.3792047883     -1.9269165145
C     0.7036235382     2.8826774006     -0.5154161117
C     1.1104037402     2.4709707317     -1.8187901687
C     -1.3954119555     2.5087064401     0.7528035504
C     -0.6935857866     3.1841336373     -0.3579651579
C     -2.6959696441     0.4472794059     0.4046542766
C     -2.5645169806     1.84846518     0.1941382104
C     -2.2398342116     -1.701418144     -0.7905467747
C     -2.9571126266     -0.4157021127     -0.7717708767
C     -0.2991213328     -2.545755223     -2.0774381667
C     -1.6917388726     -2.1483163043     -2.0348912867
C     1.5495623951     -0.9530370009     -2.5820173221
C     1.5512024395     0.438128844     -2.9121211984
C     0.3961921795     -1.6897089955     -3.051920283
C     0.1779090118     2.3522533092     -2.9273314185
C     0.4665435776     1.0854370386     -3.6205816539
C     -1.5494977166     3.1993541958     -1.4513428138
C     -2.7583311833     2.4144490549     -1.0915769773
C     -1.1481188613     2.7916911099     -2.7695499912
C     -3.2670167026     0.2148783839     -2.0231197124
C     -3.1488427298     1.6503435756     -2.1586435634
C     -2.2237848033     1.9516886493     -3.2855926537
C     -1.9078558923     -1.4129322235     -3.2328282245
C     -0.5855610292     -1.0852541304     -3.8387401493
C     -0.5914640449     0.3103715949     -4.1400421287
C     -2.7144800377     -0.309133549     -3.2556099204
C     -1.9594961849     0.7771693542     -3.9407416452


