58

 C     1.5187771723     -0.0037207537     4.3591113638
C     0.7046123196     -1.2018653659     4.0859057578
C     1.4670253258     -2.0877028787     3.3220625037
C     2.648186195     -0.0578325675     3.4500843243
C     2.6767949269     -1.3218862885     2.8769358096
C     2.5573777382     1.0549338185     2.5109174103
C     0.7474900927     1.0749797962     3.9467634944
C     1.4264704496     1.8502454125     2.9115594881
C     -0.5986228821     -0.8369580852     3.6036182221
C     -0.613479094     0.6323161919     3.6423957498
C     -1.1916559276     -1.5011852105     2.4815951871
C     0.9301594967     -2.7395530323     2.2032234809
C     -0.4356005707     -2.5517272238     1.7939485226
C     2.8512814697     -1.5528147601     1.4816982727
C     1.9540559348     -2.6375864719     1.1533507729
C     2.8345850108     0.870507387     1.1031134223
C     2.9932492819     -0.4767050982     0.5406984834
C     2.2783792483     1.839488567     0.2437578837
C     0.6629235678     2.5814180877     1.9656181609
C     1.2476480994     2.7532932714     0.682631212
C     -1.3419708944     1.3503609346     2.7366331719
C     -0.7794290982     2.4799227187     2.0055527081
C     -2.187898793     -0.7446858149     1.6906683688
C     -2.2774483377     0.6758634191     1.8587659976
C     -2.6043691534     -1.2375127909     0.4310619635
C     -0.7767532691     -2.918268847     0.4126678643
C     -1.9367859555     -2.3623181896     -0.1958260032
C     1.6477839286     -2.8926058983     -0.1419233838
C     0.2811912983     -3.2908767374     -0.4971387672
C     2.6404747325     -0.7340929315     -0.86007898
C     2.1592040826     -2.0332514281     -1.1776701581
C     2.1112223554     1.6335608453     -1.188874104
C     2.2228782516     0.3542678758     -1.7675065359
C     0.4644761046     3.1041249276     -0.4594321886
C     1.1367055964     2.5893769477     -1.6503565228
C     -1.5368690076     2.6148770614     0.8237061663
C     -2.539606355     1.5406038986     0.7667261067
C     -0.9622867992     3.0927367788     -0.4033397964
C     -3.108131133     -0.3704401019     -0.6104981157
C     -3.0196284865     1.0571098457     -0.4772079204
C     -2.0738924982     -2.205941976     -1.6269251792
C     -2.8493983763     -0.9996433332     -1.8872972332
C     0.1545200203     -3.0726481102     -1.874024155
C     1.295737035     -2.2478291786     -2.2994092587
C     -0.9975467469     -2.5217725603     -2.4680288002
C     1.3833130326     0.0911891864     -2.9713668854
C     0.8882279073     -1.257147917     -3.1716734317
C     -0.5512447798     -1.5097797586     -3.4426974716
C     0.4259728878     2.396269299     -2.8123875749
C     0.5777414085     1.1226367687     -3.5151163269
C     -1.669319659     2.8438444263     -1.6251219602
C     -2.7778891299     1.8389308974     -1.6561764759
C     -0.9741465251     2.7874379107     -2.8555103647
C     -2.6099898351     -0.2187199153     -3.0189983896
C     -1.3678437653     -0.475733958     -3.8024428234
C     -0.7436411181     0.8100176808     -4.0518903463
C     -2.7277520358     1.2090306666     -2.9134455616
C     -1.6352647844     1.8134625217     -3.6624071152


