58

 C     1.2221641484     -0.0441840755     4.0613384825
C     0.4186980901     -1.2253265777     3.8191055145
C     1.0858977739     -2.0455571998     2.9058291326
C     2.2762596184     -0.0192178282     3.1105813589
C     2.2677563487     -1.2539035327     2.4192767037
C     2.2351716652     1.2158680716     2.3599399733
C     0.4448754542     1.1150330775     3.8676714812
C     1.1880201926     2.0048047018     3.001919129
C     -0.9089161125     -0.7445487971     3.4670895363
C     -0.8863965093     0.7266817024     3.47655457
C     -1.6092112196     -1.3708395244     2.4558626652
C     0.33920045     -2.8214418619     1.9561584856
C     -1.059546616     -2.5350519127     1.7881909976
C     1.0493453726     -3.2588659211     0.8265039256
C     2.5949674005     -1.2836794661     1.0651553361
C     2.2698163265     -2.529637132     0.4257380482
C     2.3526838151     1.2256445946     0.9371775464
C     2.6383762306     -0.0417333501     0.2540488322
C     1.7388515107     2.3329518065     0.185263246
C     0.4730427118     2.8799124583     2.2484139651
C     0.9367872135     3.260194139     0.9393991219
C     -1.5981408484     1.4926005681     2.5056984097
C     -1.0013716358     2.7613345782     2.175396178
C     -2.3747062359     -0.608984923     1.4776741916
C     -2.3764644663     0.8193687201     1.4468489027
C     -1.6235399758     -2.5919958548     0.4791056829
C     -2.4281787258     -1.3870107092     0.2908082246
C     0.4028141537     -3.6822798636     -0.3824933579
C     -0.9623762717     -3.237397531     -0.6109830002
C     2.4501453499     -2.6785740396     -0.9232348272
C     1.3800626947     -3.5454530694     -1.431548481
C     2.4430984842     -0.1522055318     -1.1694292819
C     2.5021942318     -1.4929853251     -1.7683347844
C     1.466587582     2.193203122     -1.2527944713
C     1.747940844     0.9175566725     -1.9124339986
C     0.4592556538     3.0583264158     -1.8445756058
C     -0.1807209423     3.9098564637     0.3329120407
C     -1.4069503614     3.4404772951     1.0425390221
C     -0.3943970936     3.8692835124     -1.0019950144
C     -2.6631393799     1.4884180062     0.1708265723
C     -2.2790344099     2.8868297534     0.0625195869
C     -1.8035343227     3.4049613124     -1.1971514644
C     -2.5998558129     -0.7824699554     -0.9916406088
C     -2.7450737671     0.6833565531     -1.0626703954
C     -1.3130285992     -2.7679382039     -1.9280195436
C     -2.1116658337     -1.5351445158     -2.0936201434
C     1.0173426072     -3.0571050542     -2.6673270965
C     1.7849566028     -1.8042833091     -2.9345705504
C     -0.3355252419     -2.7831954469     -2.9617401488
C     0.9410461657     0.5218444903     -3.072650909
C     -1.562986289     -0.823749963     -3.2228636486
C     0.8876035719     -0.8561395962     -3.4808291581
C     -0.3855569405     -1.4936182651     -3.62957328
C     -0.4225598945     2.5166269355     -2.8157651124
C     -1.8078503603     2.6254106541     -2.3077592235
C     -2.3555016092     1.2992889627     -2.3080938692
C     -0.2576154292     1.2496803577     -3.347300253
C     -1.5611173201     0.5550034311     -3.2361486155


