58

 C     1.130251783     -0.0728123487     4.0314760166
C     2.3042058587     -0.3565246602     3.4205671706
C     2.2704748357     -1.7883988547     2.9709413739
C     0.2745964489     -1.3073230445     3.9443044694
C     0.9249389553     -2.2568559306     3.0574960311
C     -0.9885560627     -0.8745746748     3.706117936
C     0.3359660861     1.0631236967     3.6119589718
C     -1.0083209185     0.6088674017     3.6466594279
C     0.7516928584     1.8799928265     2.4902559879
C     2.7925210371     0.4501590595     2.3111345094
C     1.988662026     1.5190703785     1.7799864115
C     2.9521098358     -1.8457747921     1.7843418369
C     3.3427633841     -0.4669383769     1.3962848122
C     2.4002088006     -2.4668338559     0.6387565427
C     0.2452381479     -2.7156066375     1.8623585004
C     1.0432979562     -2.9165460451     0.6332548052
C     -1.7568230404     -1.3680398912     2.5966263348
C     -1.1624514455     -2.308705695     1.6869062388
C     -1.9350477932     0.9769753252     2.6787247941
C     -2.4851049068     -0.2466982361     2.0778187335
C     -0.301460257     2.5642434197     1.7501404375
C     -1.6953389589     2.1132187594     1.8584850268
C     0.0741116209     3.1891326603     0.5227118707
C     2.09260063     1.7733157555     0.3266856068
C     1.1931216475     2.702563744     -0.2216581636
C     3.2502961043     -0.3539353327     -0.0015067173
C     2.8934235963     -1.6800815716     -0.494973915
C     2.6807770362     0.7981988244     -0.6010438822
C     2.3432750075     -1.7990679437     -1.7181149114
C     0.3948160745     -2.9911179703     -0.6927416794
C     1.1615306529     -2.6570502846     -1.8875673303
C     -1.7294783522     -2.3138679238     0.3751807276
C     -0.9978066518     -2.7845051993     -0.7943741116
C     -2.9770476869     -0.2204112792     0.7481421033
C     -2.6769568459     -1.3512887736     -0.0652657494
C     -2.5624670227     2.2225112071     0.7274768136
C     -3.1429710362     1.0487109791     0.1374174316
C     -0.9175173883     3.5476950197     -0.4475069852
C     -2.2133363639     3.0800530671     -0.3564533218
C     0.8492684145     2.7072066419     -1.6655718792
C     -0.4145894695     3.2868754022     -1.7980734701
C     2.2172744452     0.6742938028     -2.0018917368
C     2.2270021701     -0.6402821844     -2.5807393662
C     1.2665335431     1.6408737782     -2.5367703913
C     0.5448795422     -2.2236791037     -3.0558387162
C     1.2552053384     -1.0118219824     -3.5519723162
C     -1.6164298964     -2.2086521416     -1.9688080612
C     -2.5694825691     -1.2245951561     -1.5180535699
C     -0.8633947871     -1.9580520357     -3.131882498
C     -3.0632519068     1.1809946743     -1.3325596303
C     -2.5769959455     2.4567820635     -1.6331290599
C     -1.4588338995     2.6176062797     -2.5397658319
C     -2.7102129863     0.0363737557     -2.1566982442
C     0.2996358706     1.2244526488     -3.5288834119
C     0.315065003     -0.1188474317     -4.002247157
C     -1.031677136     -0.7094813353     -3.8113395282
C     -1.1028303642     1.5747268852     -3.368015794
C     -1.8573610195     0.3003526366     -3.3087635124


