58

 C     1.2162551371     -0.0641137261     4.1015793208
C     2.3570650935     -0.2314513137     3.3524451057
C     2.2545925117     -1.5104011789     2.5938223508
C     0.3726939826     -1.259517469     3.8672147379
C     0.9938541016     -2.1019646899     2.8399737561
C     -0.9220751552     -0.8288403954     3.7130069829
C     0.3891213763     1.1214359896     3.9004505512
C     -0.9495195803     0.6510469613     3.7212933734
C     0.8397318502     2.1195565236     3.0219266475
C     2.8520748092     0.7748835037     2.4640074539
C     2.1493384307     1.9929036684     2.3610867537
C     2.720723365     -1.2978887922     1.2969942837
C     3.2146229918     0.090797562     1.2252690851
C     2.0614929376     -1.8992251787     0.1808859249
C     0.2348471526     -2.599387564     1.7463646943
C     0.8505835112     -2.66907367     0.4114615129
C     -1.7149660023     -1.3058836831     2.6372052184
C     -1.2137432593     -2.3483931548     1.7774161907
C     -1.7385222853     1.0396310634     2.6328804257
C     -2.3461704992     -0.1572964394     2.0432203161
C     -0.0627659215     2.6825033233     2.0337314184
C     -1.3386006262     2.0930009114     1.7470987866
C     2.0893311861     2.6730709373     1.0912485513
C     0.7403901667     3.1979137327     0.9391716849
C     3.1891658014     0.7638918809     0.0266579175
C     2.7074374294     2.1304090104     -0.0452854702
C     2.2757972813     -1.2675528573     -1.1262145786
C     2.779803857     0.0800035844     -1.182294331
C     1.4977884278     -1.6896049729     -2.2110929857
C     0.0285118567     -3.0553901812     -0.7417143541
C     0.4877245973     -2.706301608     -2.0680372001
C     -1.9434434483     -2.5306305374     0.6132835508
C     -1.3970443617     -3.1588539065     -0.5662828499
C     -2.8133373839     -0.1901785713     0.7191092498
C     -2.9088016803     -1.5222631289     0.1693760975
C     -1.8669598594     2.1044735344     0.3727225822
C     -2.6432994563     0.962535472     -0.1592800847
C     0.1873354662     3.3688613319     -0.3041748232
C     -1.1896479902     2.9297554746     -0.5633951561
C     2.1413466652     2.31135951     -1.356043675
C     2.2514179031     1.0555418708     -2.0942782586
C     0.9674286851     3.0670791071     -1.508238738
C     1.0999036829     -0.7476432332     -3.2713972604
C     1.3079351115     0.6717204881     -3.0960261768
C     -0.4417190659     -2.4917964042     -3.1412252296
C     -0.0944342548     -1.2280177312     -3.8035333434
C     -2.2940824634     -2.8448538263     -1.6371985189
C     -3.111643545     -1.7255821098     -1.1842869513
C     -1.8087213705     -2.4809916991     -2.8911011824
C     -2.732474005     0.7231414289     -1.6047511334
C     -1.2679315801     -0.3775509723     -3.8484107778
C     -3.0054139136     -0.6235781648     -2.1115337185
C     -2.3280496198     -1.116353588     -3.2485310202
C     -1.2669160421     2.655588051     -1.9455687583
C     0.0509531125     2.7001030679     -2.5184385597
C     0.1933253924     1.544487783     -3.3481465801
C     -1.9705657182     1.5490256726     -2.4845396821
C     -1.1317447758     0.9758592932     -3.5398831566


