58

 C     1.5706519506     0.0453743676     4.3269922523
C     0.7089141988     -1.1279625844     4.2525132323
C     1.3741599986     -2.0992199989     3.4984080168
C     2.7084794545     -0.1770203665     3.4318805033
C     2.6220144731     -1.485608472     2.9614996979
C     2.7607481433     0.8842308572     2.4474278336
C     0.8468503922     1.08694475     3.7594426393
C     1.6095146138     1.7239891774     2.6960920507
C     -0.6119355416     -0.7136995815     3.8123643403
C     -0.5380231958     0.7025357431     3.479571803
C     -1.3180443851     -1.5317178561     2.9297246329
C     0.740955095     -2.7746943446     2.4131446962
C     -0.6357219046     -2.626412468     2.2232203486
C     2.694273292     -1.7884382299     1.5689824988
C     1.5831286557     -2.6552837503     1.2264623749
C     3.1202465494     0.6133463056     1.0949838573
C     3.1062422509     -0.7848471451     0.63390296
C     2.7287706905     1.6060359865     0.1523768117
C     0.9344529769     2.3819406613     1.6607724471
C     1.6795640616     2.5390212695     0.4528964339
C     -1.2238568887     1.2549080591     2.3790057862
C     -0.5375077979     2.2770019022     1.5580484308
C     -2.2406886978     -0.9441552629     2.0089753381
C     -2.2575007022     0.4485915905     1.7212504465
C     -1.1990976821     -2.7213137394     0.9056108682
C     -2.3656635049     -1.8732686388     0.8964665206
C     1.0307741464     -2.6785356598     -0.0878098217
C     -0.4168206105     -2.8010118103     -0.2842130842
C     2.7723201106     -1.0324656509     -0.7177491703
C     1.7769761189     -1.9980055214     -1.0869171206
C     2.6728732347     1.3484084892     -1.2713598206
C     2.7095734169     0.0262787557     -1.7057698729
C     1.0475456583     2.9380826998     -0.7683112309
C     1.7160258485     2.2731061553     -1.8723336319
C     -1.1215082552     2.6595857748     0.350451975
C     -0.337199077     3.0972041073     -0.7997059723
C     -2.8430801071     0.8790458715     0.4502519657
C     -2.3431722063     2.0507084175     -0.174244137
C     -2.9355256504     -1.5015084703     -0.2739906809
C     -3.403403767     -0.1174581487     -0.4393642659
C     -1.0300453265     -2.4011941213     -1.5611013992
C     -2.3930072354     -1.9704959649     -1.5273850503
C     1.1797396733     -1.6060438684     -2.3485212153
C     1.8321318714     -0.3950152067     -2.7750109684
C     -0.1909920847     -1.8664128351     -2.6569953301
C     0.9988392304     1.9277496836     -3.0011066401
C     1.1222502442     0.5541895754     -3.5289882292
C     -1.0796518744     2.8133762349     -2.0010833433
C     -2.3715822662     2.2373275146     -1.6086344593
C     -0.4012702307     2.3240029827     -3.1376258286
C     -3.5012394588     0.1073098672     -1.8077361747
C     -2.9194653986     -1.0775002114     -2.511585191
C     -2.9951623901     1.2812147069     -2.4428527507
C     -0.7858528896     -1.0134504213     -3.6711693167
C     -0.1110443071     0.1741106038     -4.0746231442
C     -1.0485281115     1.3159278013     -3.9352296204
C     -2.1875536693     -0.6446039521     -3.5801766777
C     -2.3038710635     0.8357943994     -3.6411266038


