58

 C     1.4885916484     -0.0421610318     4.0566911674
C     0.7213092891     -1.2564249016     4.0849823032
C     1.3851233482     -2.2643217318     3.2992937608
C     2.4248133374     -0.1847425049     3.0229683495
C     2.408516635     -1.5538859161     2.5258087541
C     2.3425807184     0.9452657982     2.111809268
C     0.6146458927     1.0283813165     3.6269877503
C     1.2266040709     1.7638221705     2.575121081
C     -0.6357275866     -0.9279183384     3.7551144499
C     -0.6946235827     0.5000151453     3.4244452252
C     -1.4005052678     -1.8270376228     2.9794955246
C     0.5884822992     -3.2420785576     2.6660501051
C     -0.8430234655     -3.0715313619     2.6261308507
C     0.9761593645     -3.6627406502     1.3586304176
C     2.5595029794     -1.763421097     1.138119842
C     1.9122582645     -2.9469726312     0.5928442096
C     2.5425662811     0.787064441     0.7357533617
C     2.7505755215     -0.5890541257     0.2350571096
C     2.0246324504     1.8416058518     -0.1572626325
C     0.4271704723     2.4273340607     1.6475842111
C     1.0347432338     2.7612155266     0.3682005981
C     -1.4699664841     0.9796867992     2.3323396911
C     -1.0005740307     2.1570712497     1.6597216789
C     -2.1926496212     -1.3282022031     1.84001963
C     -2.2633490947     0.0269016533     1.5249889103
C     -1.3059554854     -3.3907131248     1.2697808965
C     -0.2306983802     -3.864210257     0.517510983
C     -2.1089242684     -2.3324714841     0.7666671218
C     1.4135971389     -2.9292521445     -0.7757466713
C     0.0053184678     -3.3511564785     -0.7664360697
C     2.5166725124     -0.7654009637     -1.1282081848
C     1.7985875174     -1.9412263937     -1.6250731908
C     2.0545645235     1.6511118592     -1.5977520148
C     2.2343099637     0.3163802033     -2.0456869091
C     1.3081702318     2.5462470895     -2.4785141192
C     0.2437927928     3.5500978226     -0.5167775768
C     0.4861744492     3.560406928     -1.905795187
C     -1.7489186132     2.6363111355     0.5534051235
C     -1.1982635473     3.566154395     -0.3229527229
C     -2.6509949176     0.3868032104     0.1465236614
C     -2.6249194561     1.7397389167     -0.2088572026
C     -2.0053857732     -1.9338938328     -0.5899633235
C     -0.9471203409     -2.5064850312     -1.413787865
C     -2.5244012399     -0.6069947352     -0.9309328501
C     0.9222677818     -1.4935124461     -2.6722799312
C     1.3875547727     -0.2025709767     -3.1068294107
C     -0.4776349183     -1.7309749286     -2.5500253454
C     0.6479593571     2.0390027439     -3.6517510767
C     0.5570620467     0.6349359045     -3.8598924091
C     -0.8143461959     3.5307764703     -2.6096602794
C     -1.8079737261     3.3962711727     -1.642294568
C     -2.6303217597     2.2036623553     -1.5909106021
C     -0.7141077322     2.5834895948     -3.6641293252
C     -2.3916569091     -0.1519704806     -2.252312745
C     -1.3434832486     -0.7337953305     -3.1015877034
C     -0.846407415     0.2806699192     -3.9376443856
C     -2.5225009758     1.252967782     -2.6211827178
C     -1.6098733663     1.5017297665     -3.7177989964


