58

 C     1.3908956384     0.1628708455     4.2354575862
C     2.5911724755     0.1017144946     3.4374985428
C     2.5300980212     -1.1110023777     2.7071757468
C     0.5438787974     -0.9793732041     3.8517125497
C     1.2424332674     -1.7532932367     2.9149061318
C     -0.7874841999     -0.5033563174     3.5013999262
C     0.6017436286     1.2990513607     4.1743818511
C     -0.7864349206     0.880325835     3.7442853844
C     0.9621738982     2.4070118912     3.3777108178
C     2.866947373     1.1445014755     2.4648167299
C     2.0700483869     2.2981568521     2.442238373
C     2.9623816066     -0.9193359232     1.3561960946
C     3.1713168948     0.4901201802     1.1746768027
C     2.4568801388     -1.7430642895     0.3255387746
C     0.56419397     -2.3867379554     1.8236345476
C     1.314269647     -2.6382419069     0.6052326253
C     -1.4716909177     -1.0200384942     2.3641079504
C     -0.8817081853     -2.1904888909     1.7118011044
C     -2.2524693433     -0.1200007154     1.5270905435
C     -1.2762526206     1.7729883574     2.7689083924
C     -0.1876657732     2.7129221243     2.5704531919
C     -2.0166552707     1.3089013904     1.6505291913
C     1.5877273233     2.7780907051     1.1367120957
C     0.1846057727     3.0885514176     1.2596117068
C     2.8811221112     1.0708017077     -0.0857709229
C     2.0627337945     2.2890715627     -0.1091363625
C     2.5740238847     -1.2261286767     -0.9918765518
C     2.7535118342     0.1793416732     -1.190340728
C     1.8027599305     -1.7546451189     -2.1023000578
C     0.6199714465     -3.1783763805     -0.5026443666
C     0.8894002173     -2.7677859611     -1.8886422562
C     -1.5240872425     -2.6971547113     0.5728627068
C     -0.7759045985     -3.3657111215     -0.4183281475
C     -2.8412339826     -0.6275624503     0.2871488529
C     -2.5822621818     -1.9540474168     -0.1134406135
C     -3.2059114866     0.3196525513     -0.7527463416
C     -1.9420793599     2.1090603568     0.4155993091
C     -0.7260607092     2.916554257     0.1941833079
C     -2.6164300554     1.6626420943     -0.7120447443
C     1.2228963977     2.5184329165     -1.2340931932
C     -0.1492723799     2.9167323877     -1.1020493867
C     2.0436715988     0.5442350212     -2.4127296646
C     1.5102550115     -0.6582298771     -3.0248335105
C     1.3113283583     1.7248342436     -2.4636107416
C     0.3221889586     -0.6263130545     -3.745555393
C     -0.3729664842     -2.7593025015     -2.6378061438
C     -1.3856738425     -3.1185378706     -1.7144334421
C     -2.5507275472     -2.3216413077     -1.5334330906
C     -0.6499027186     -1.7260045535     -3.5740018153
C     -3.3165183578     -0.0746831993     -2.0926939308
C     -2.8753092995     -1.3745009476     -2.5255487625
C     -1.9439929194     -1.1590226719     -3.600183394
C     -2.1826040496     1.9816945037     -2.0716821722
C     -0.8806147499     2.4595471632     -2.2544935031
C     0.0367145127     1.7504537283     -3.138976559
C     -0.4159772148     0.6276829759     -3.8658058487
C     -2.6653339507     0.943957647     -2.925939033
C     -1.8081205244     0.2946794027     -3.8107301906


