58

 C     1.4952540354     0.1096981041     4.2454015547
C     0.6999751054     -1.0940214037     4.0370827443
C     1.4636640463     -1.9525240486     3.2674699086
C     2.6877785731     0.0301035194     3.3500138347
C     2.7163901011     -1.2484340955     2.8219967381
C     2.7089293063     1.1454849385     2.448596856
C     0.7520699861     1.1677588431     3.7830236057
C     1.5481928887     1.9511302995     2.835125482
C     -0.5907835798     -0.710728876     3.4729734371
C     -0.5847887415     0.7196303277     3.349144814
C     -1.2156264002     -1.4789764187     2.4505777306
C     0.9259102433     -2.6534507112     2.1589257408
C     -0.4671803478     -2.5774905039     1.8301433298
C     2.8457732697     -1.4687250856     1.427114713
C     1.8760552277     -2.5149638025     1.0853560219
C     2.9523588438     0.9701058741     1.045455805
C     3.0374688094     -0.3939796848     0.5075425956
C     2.4803014953     2.0343041881     0.1479953844
C     0.8785370882     2.6816586671     1.9058426436
C     1.4740085825     2.9266221801     0.6179820777
C     -1.2379767228     1.3734516927     2.2701219726
C     -0.5627056279     2.501019726     1.682919874
C     -2.2277598411     -0.8129502502     1.6382592641
C     -2.1752953698     0.635054092     1.4500060643
C     -2.8581054478     -1.6048286775     0.6491643939
C     -0.8577051453     -3.0363105583     0.5114962469
C     -2.1690221474     -2.7384454285     0.0713629592
C     1.4667081646     -2.7061941818     -0.2216495075
C     0.1519176044     -3.1605406876     -0.5084666322
C     2.6588758798     -0.6425874739     -0.9045746329
C     1.9449848114     -1.8291717543     -1.2655062933
C     2.4924434948     1.8127960799     -1.2741610518
C     2.508033783     0.4354867864     -1.7925091115
C     1.7106830879     2.5890389044     -2.136395576
C     0.4183503914     3.3796219537     -0.2495385554
C     -0.8408091922     2.9408462205     0.3695021128
C     0.5804110784     3.3189331468     -1.622598468
C     -2.6031711996     1.2017430482     0.1715514709
C     -1.8832382237     2.3334820512     -0.4039564855
C     -3.6051516428     -0.9892069013     -0.4083418514
C     -3.341890509     0.3611886722     -0.7258771225
C     -2.4933791436     -2.7515180563     -1.3409772117
C     -3.4754190421     -1.7972426546     -1.6012478622
C     -0.1206100339     -2.7456498367     -1.8753311291
C     0.9579822745     -1.8487672939     -2.3010059714
C     -1.4102262274     -2.5578046246     -2.3145149505
C     1.6286266647     0.3703006814     -2.9371717698
C     1.2077392945     1.714456233     -3.2027127531
C     0.7050173144     -0.7161467678     -3.1211572547
C     -0.5635752451     2.945977261     -2.4099496549
C     -1.7454672175     2.4508619071     -1.842266308
C     -0.1321820547     1.974323988     -3.4211099162
C     -3.0901491337     0.4266794038     -2.1892505821
C     -2.9745158324     -0.9237508754     -2.6431515035
C     -1.7212467499     -1.3886308308     -3.1419020362
C     -0.7030399125     -0.4410173519     -3.5104840812
C     -2.2149479478     1.3496815364     -2.6985361112
C     -1.1084727369     0.9326184995     -3.5378049624


