58

 C     1.6523437658     -0.1705398206     4.423517636
C     0.7934519162     -1.3319873191     4.4894885012
C     1.2431305035     -2.2086635386     3.4763466691
C     2.5823512674     -0.3747138771     3.3395845404
C     2.3934568512     -1.6532422041     2.7558185845
C     2.6631747702     0.7913444843     2.4484187017
C     0.8852632661     0.9023479283     3.9109014634
C     1.5924211462     1.6475706804     2.8659478959
C     -0.4845813392     -0.914156656     3.9275031904
C     -0.4715514572     0.4857211057     3.6387369072
C     0.134039988     -2.7068876901     2.6745316665
C     -0.987014475     -1.8022956123     2.9021795902
C     0.3990547986     -3.0956075927     1.3965657704
C     2.5404949742     -1.8437379554     1.3384532478
C     1.6866936003     -2.8197073165     0.7396507128
C     2.9351598256     0.6368912484     1.0722916214
C     2.9615646118     -0.7153039647     0.4847455902
C     2.5003247793     1.7245016638     0.2406879631
C     0.8552328765     2.3843899503     1.942949403
C     1.5078140904     2.6323620015     0.693597256
C     -1.1764599531     1.0063820158     2.5262865539
C     -0.6153218971     2.2056321667     1.9016012028
C     -1.7390276703     -1.3102460352     1.8121900668
C     -1.9958748212     0.125900365     1.7030106916
C     -0.6374934018     -2.9883976157     0.3949310511
C     -1.7194507013     -2.0796094791     0.5526464779
C     1.4367846838     -2.8427457273     -0.6554181378
C     0.0152344631     -3.126830359     -0.8743570294
C     2.7481689602     -0.808234605     -0.9116494095
C     2.0496142887     -1.9116149616     -1.506881836
C     2.3163188928     1.599323401     -1.1953311394
C     2.4492886371     0.3533045188     -1.7613790195
C     0.776180602     3.129154505     -0.4475587809
C     1.25780156     2.4900465022     -1.6447197712
C     -1.2948273751     2.7213460897     0.8214228162
C     -0.5895406352     3.3809678168     -0.3011618164
C     -2.6268040768     0.6494569336     0.5113780934
C     -2.4540677726     2.0496822472     0.2654817686
C     -2.3738416308     -1.5751784769     -0.6452925512
C     -2.9813328257     -0.2305145289     -0.6342806631
C     -0.6292841905     -2.7232391457     -2.0078114812
C     -1.9478894895     -2.1279486178     -1.9028314297
C     1.3690144381     -1.4590639323     -2.7053407236
C     1.5773214342     -0.0393185539     -2.8570118179
C     0.1197492899     -2.0062618306     -3.0547786626
C     0.3859868302     2.1616638149     -2.73049138
C     0.5648364472     0.8345146584     -3.3825899866
C     -1.3963793255     3.2849652393     -1.4375350269
C     -2.6430317873     2.5761241211     -1.0431989258
C     -0.9433688836     2.734439135     -2.661962289
C     -3.2851861204     0.3869507347     -1.8937275368
C     -3.076738138     1.8041212834     -2.0797616683
C     -2.0846719296     1.9827584044     -3.1819163028
C     -2.1290750257     -1.3858213426     -3.1043050797
C     -0.7903190758     -1.1977233429     -3.7428840429
C     -0.5955316652     0.1865174019     -3.9619809088
C     -2.8063725193     -0.2067852927     -3.1240080179
C     -1.9172354055     0.7879970067     -3.8007001789


