58

 C     1.6078877554     -0.1698620365     4.3353179987
C     0.808852603     -1.3347740265     4.4973049514
C     1.2329659918     -2.2929253351     3.5589776297
C     2.5263351915     -0.4268795418     3.2236480073
C     2.3004298717     -1.7345523543     2.7184218214
C     2.4646858351     0.6557800607     2.2868797565
C     0.7565888079     0.8309209906     3.8122838859
C     1.3676897425     1.5257607582     2.6939725669
C     -0.5750126031     -1.0163304478     4.0853888737
C     -0.6177793168     0.3447407027     3.6831026548
C     0.0879358377     -2.8886590803     2.9091222378
C     -1.0667396376     -1.9980654123     3.177467442
C     0.2440930309     -3.3763939442     1.6351672842
C     2.2894855128     -1.9646135525     1.2884774392
C     1.3859646043     -2.9326989722     0.7835285531
C     2.6643775631     0.4691248182     0.9107997441
C     2.6311514593     -0.8732764006     0.3686311619
C     2.2851310162     1.5994631775     0.0653528163
C     0.58039514     2.1488643522     1.7358120755
C     1.1819618278     2.4496508646     0.4434408178
C     -1.3736099006     0.7607979418     2.555579008
C     -0.8800055858     1.9230076584     1.8064802078
C     -1.936947683     -1.6204720615     2.1094315839
C     -2.1944890968     -0.2049379525     1.8455123507
C     -0.8939224917     -3.4117357798     0.7845331331
C     -1.9512905251     -2.5019154861     0.9651209624
C     0.9177356257     -2.8857770414     -0.5839437359
C     -0.454289397     -3.2545695757     -0.583126986
C     2.3724354828     -0.9942596982     -1.0559220634
C     1.3864361319     -1.9423779114     -1.5397563217
C     2.6156215991     1.4764744772     -1.2907891428
C     2.6432609282     0.1403725178     -1.8612618441
C     2.0552230402     2.348144403     -2.273701061
C     0.3941201123     3.0759628929     -0.600673137
C     0.8519677793     3.0645705373     -1.9579986121
C     -1.6222023192     2.3541227998     0.7367185505
C     -1.0364795967     3.0982885881     -0.3968388658
C     -2.810342669     0.2015806731     0.5880168469
C     -2.7276680078     1.5631640017     0.2284088545
C     -2.3391683159     -2.0175664867     -0.3564503136
C     -1.3915510344     -2.5279859504     -1.3318425533
C     -2.9023308596     -0.7550645288     -0.5442898672
C     0.4884650853     -1.5373757322     -2.6287757853
C     -0.9561867646     -1.7390462008     -2.4310493862
C     2.0864661719     0.2643150237     -3.1738369099
C     1.915294251     1.6465388054     -3.5142952697
C     0.8826672045     -0.4639058392     -3.4720976654
C     -0.0775916844     2.8179524433     -3.0737497864
C     0.5546925878     1.806890117     -3.8988050016
C     -0.075522152     0.5098324868     -3.9985380702
C     -1.9146311375     2.9889516275     -1.4773869278
C     -2.9383426951     2.0092354162     -1.1155174793
C     -1.4529322492     2.711452032     -2.8244103941
C     -2.8658767582     -0.2663877335     -1.9013743577
C     -1.8641468219     -0.7300271068     -2.8355612243
C     -1.4387274177     0.4029367131     -3.6625238008
C     -3.0476140724     1.1221423216     -2.174889247
C     -2.1749170082     1.5513969966     -3.2734933964


