58

 C     1.4822574111     0.0251598711     4.171061777
C     0.67441464     -1.1983311238     4.1666448403
C     1.3957848603     -2.1588847576     3.4686474342
C     2.6065095214     -0.1459913115     3.2889832136
C     2.6221667505     -1.5008514997     2.9179056343
C     2.5264712378     0.8825205921     2.2512720217
C     0.6888028877     1.0681404262     3.68938112
C     1.3872795923     1.734073277     2.6074233341
C     -0.6555343599     -0.8397219724     3.7013293119
C     -0.6644535834     0.5996644078     3.450895829
C     -1.2822170653     -1.6441339323     2.7487460876
C     0.8017965594     -2.9117707474     2.4057679212
C     -0.5655748518     -2.7444891479     2.1245439609
C     2.7176254556     -1.8599441256     1.5684851141
C     1.7126349481     -2.8778909815     1.2710403188
C     2.7282934901     0.5739285249     0.8911147625
C     2.9640456732     -0.8403169957     0.5582592146
C     2.1264297082     1.4542060725     -0.1404255589
C     0.6616649369     2.3961467555     1.6501989449
C     1.2325233571     2.4992087279     0.3012350647
C     -1.3942985588     1.1700151002     2.3980929489
C     -0.8108669421     2.3405814937     1.7461361791
C     -2.1315362862     -1.0527065345     1.7249843737
C     -2.2713596807     0.3427732993     1.5678779789
C     -1.0367431053     -2.8582521595     0.762806122
C     -2.0785280323     -1.8856390126     0.5522652682
C     1.2800988239     -3.1006620257     -0.0453036459
C     -0.1693129203     -3.2043746299     -0.3104738735
C     2.7717818385     -1.2458454804     -0.7511947299
C     2.0974561242     -2.4930637478     -1.0647418043
C     2.0432196202     1.0470894247     -1.5287094407
C     2.4727051501     -0.294807341     -1.8336021452
C     1.1024078347     1.6904126314     -2.4644777989
C     0.4990599954     3.2255758643     -0.6405857358
C     0.4721765114     2.8893439208     -2.0358944747
C     -1.5383362205     2.9417578873     0.7485445966
C     -0.8436767664     3.7006063353     -0.2795758339
C     -2.8048737871     0.8724356088     0.3051014253
C     -2.6774358085     2.2815374882     0.1016422205
C     -2.4137207581     -1.3844690088     -0.737232286
C     -2.9168174033     -0.0075606999     -0.8581456161
C     -0.650571839     -2.9165883832     -1.6244533459
C     -1.7786464849     -2.0313912154     -1.8307852856
C     1.6185940074     -2.3732894124     -2.3765793492
C     1.907541685     -1.0103530582     -2.8863043677
C     0.2877132451     -2.6499418795     -2.6752369268
C     0.3692992705     0.8448076967     -3.4399470937
C     -1.5294564981     -1.2663469788     -3.0527980767
C     0.7594594166     -0.5115780812     -3.5763275056
C     -0.2240781361     -1.5592590313     -3.4931793573
C     -2.8721901988     0.6071985299     -2.1577726881
C     -1.0497263237     1.0888078637     -3.5730600121
C     -1.9713696857     0.0400407827     -3.1573562758
C     -0.8537567088     3.2841564831     -2.5249842485
C     -1.6293601469     3.7916064956     -1.4108310421
C     -2.7614232514     2.8552927104     -1.205226278
C     -1.6175547998     2.3091921809     -3.1573934255
C     -2.8167943497     2.0121748135     -2.307788826


