58

 C     1.4444258584     -0.3391767802     4.7941416094
C     0.5942479886     -1.4490594202     4.4548354771
C     1.1500995035     -2.1611952788     3.350248368
C     2.5084742329     -0.3436724584     3.8364338887
C     2.3381113625     -1.478611961     2.9097199527
C     2.6772301187     0.9672307913     3.2782168003
C     0.6953975472     0.8491716411     4.4392661373
C     1.4800081342     1.7357356159     3.668142621
C     -0.6534064419     -0.9755386975     3.9565620141
C     -0.6169136254     0.4585733076     3.9063786422
C     0.1240616884     -2.4703371251     2.3698109987
C     -1.0464553283     -1.7235305176     2.7512984303
C     0.437095373     -2.5638274797     1.0175348487
C     2.5641177373     -1.339352479     1.5176738569
C     1.7586182656     -2.1344959903     0.5730999463
C     2.8310809079     1.1059435951     1.900157463
C     3.0091057499     -0.0336864519     1.0239516744
C     0.9447641775     2.3029046662     2.4879597574
C     1.8877350815     2.1252996909     1.413297109
C     -1.1826239435     1.1038871175     2.7763089785
C     -0.4303205143     2.1501684193     2.0947421155
C     -1.8580928475     -1.1281082332     1.7906428732
C     -2.0942432153     0.3081599699     1.9395011962
C     -0.6942978386     -2.4666765523     0.082994411
C     -1.8629876944     -1.6838107139     0.4358582444
C     -0.426938819     -2.6784587874     -1.2665966488
C     1.9356246134     -1.9645211614     -0.8321028662
C     0.9609036339     -2.531101504     -1.7341456979
C     2.8874753364     0.243046721     -0.3368858313
C     2.6049769261     -0.7826157188     -1.3064371352
C     1.5448192777     2.2534958124     0.052477351
C     2.2930489815     1.4574449986     -0.8520618298
C     -0.7870198532     2.5198756309     0.7454125735
C     0.1954995193     2.6340933039     -0.3279397269
C     -2.6670180206     0.9312739922     0.8622851859
C     -2.1133194677     2.1900132381     0.3583081239
C     -2.6695824636     -1.0840837232     -0.6106725602
C     -3.2059561708     0.212828556     -0.286094535
C     -1.3360524697     -2.2992188957     -2.3162432607
C     -2.4531083784     -1.4266543387     -2.0337363683
C     0.88488977     -2.1275864357     -3.0639870272
C     -0.5254292813     -2.1117807891     -3.4835773879
C     2.2240485811     -0.1613675639     -2.5330149839
C     1.8486862498     1.2136289615     -2.1880596288
C     1.4598308691     -0.8692074117     -3.4686818499
C     -0.2097238529     2.52541397     -1.7272880033
C     0.6583693259     1.8012221917     -2.6863127867
C     -2.537505686     2.3477535445     -0.9499014123
C     -3.3764851696     1.1714306495     -1.3137838173
C     -1.6256435688     2.5536827755     -2.0140221308
C     -2.7808964972     -0.4489972371     -3.0609848997
C     -3.1733315534     0.8745659133     -2.6383538083
C     -2.1800874563     1.842777872     -3.1578928608
C     -0.7367793734     -1.0155761547     -4.3188337057
C     0.4885214409     -0.1599210734     -4.2327544499
C     0.0612956244     1.131464493     -3.8562796601
C     -1.867091206     -0.2266540103     -4.1541342766
C     -1.3812531292     1.1677375051     -4.036481479


