58

 C     1.5338617773     -0.07693982     3.9498020149
C     0.7537852252     -1.265280741     3.8275574444
C     1.3364531528     -2.0774846431     2.8333394085
C     2.5602057686     -0.0826474829     2.9372166312
C     2.4471245179     -1.2809198118     2.224170362
C     2.4707327497     1.1431695612     2.1702058996
C     0.7040983271     1.0235123884     3.642801169
C     1.3515848038     1.8914785727     2.6991391918
C     -0.6383237239     -0.8521290124     3.6022215856
C     -0.6551787762     0.6017650056     3.4061369476
C     -1.4590160017     -1.6309763172     2.8345849646
C     0.529924985     -2.9391970096     2.0177632395
C     -0.9146631596     -2.8311766941     2.1557136214
C     1.0284795246     -3.284192114     0.7419682748
C     2.6618186167     -1.3383825937     0.8004186588
C     2.1607737618     -2.5138017769     0.1642262093
C     2.7029982533     1.1555775459     0.7626824435
C     2.806902055     -0.1083052282     0.0216565736
C     2.2218743832     2.3101039495     0.0996392818
C     0.5760851405     2.7137067726     1.8722347804
C     1.2706814568     3.1895695837     0.7207898465
C     -1.4048624793     1.2038408547     2.3613438107
C     -0.8705839305     2.4320642572     1.742864761
C     -2.3939713135     -1.0090000344     1.9152188918
C     -2.3384585844     0.3722881481     1.5919894333
C     -1.7444830864     -3.1068791624     1.0650677514
C     -2.6607952776     -1.97582449     0.9016666611
C     0.1554843353     -3.6429408045     -0.3574646018
C     -1.2454350274     -3.4359132931     -0.2201620771
C     2.0134136607     -2.5286407002     -1.2193777726
C     0.7748240415     -3.2290538901     -1.5640748264
C     2.4872250739     -0.109445798     -1.4099248726
C     2.1085435027     -1.351283329     -1.9934572981
C     1.9839504271     2.3494975489     -1.3519502178
C     2.0079644689     1.1115812501     -2.0931269225
C     0.5522823275     3.8217743846     -0.3253727562
C     1.0615551827     3.3691101471     -1.628459783
C     -1.517400635     2.9061833982     0.5900106995
C     -0.8244732227     3.7488945423     -0.3591880294
C     -2.7324708997     0.7536643534     0.2280152725
C     -2.4147973359     2.0566520512     -0.1927879838
C     -2.7820371444     -1.6585881335     -0.4443262903
C     -1.9295208111     -2.6065957532     -1.1967300524
C     -2.9128340603     -0.2839767028     -0.8205516221
C     0.1107105044     -2.4947484337     -2.5524581028
C     1.0310334611     -1.4280909309     -2.9842546198
C     -1.2944514411     -2.1656791437     -2.3765693054
C     1.0829553648     1.0138175181     -3.1749364727
C     0.5370594709     -0.2864504755     -3.5482450231
C     -0.0568919749     3.1334003321     -2.4912609529
C     -1.2393165529     3.3801946864     -1.7190889789
C     -2.2298265114     2.3796880213     -1.6096344139
C     -0.0094190224     1.9819664756     -3.3125627156
C     -2.6062603552     0.0201736448     -2.1667753293
C     -1.7539397185     -0.9219917508     -2.9406198369
C     -0.9004317269     -0.1414985775     -3.726421433
C     -2.2869488465     1.3471029696     -2.579713073
C     -1.2075946914     1.2472566652     -3.5209504367


