58

 C     1.451725622     -0.0276277302     3.4631239235
C     2.5596576423     -0.2396712677     2.6041988012
C     2.4140693025     -1.6005258902     2.0583095335
C     0.5869301784     -1.1801701143     3.352745103
C     1.132210975     -2.1333694834     2.4566019556
C     -0.7746744858     -0.7686044596     3.2829273686
C     0.6200055823     1.1182444144     3.3104077981
C     -0.792012218     0.6748944648     3.1425030676
C     1.0823524439     2.1950445557     2.5759227951
C     3.056756647     0.8302068045     1.7755395011
C     2.362581998     2.0913757049     1.8537370085
C     3.5969978657     0.4621983272     0.4905441728
C     2.8977040802     -1.8879840847     0.7948964371
C     3.644919352     -0.8984039961     0.0945771753
C     2.0254784147     -2.6120860463     -0.1711799043
C     0.2588394626     -2.8153644429     1.5338117338
C     0.7124222951     -3.0343538084     0.143936716
C     -1.646679074     -1.568841311     2.5690027744
C     -1.1363443101     -2.6668130835     1.7757843941
C     -2.7494954008     -0.9436088853     1.8505801754
C     -1.6995711812     1.3123981861     2.2638967786
C     -2.7562228195     0.4694812636     1.6381684585
C     0.1483609649     2.9495532422     1.7734301096
C     -1.2160700685     2.527565177     1.5745811603
C     2.250017411     2.9213999051     0.7097692851
C     0.8960775749     3.4247932683     0.6671352825
C     3.2532138273     1.2386705032     -0.7136634202
C     2.5338549229     2.4134293328     -0.5899961681
C     3.2233102076     -0.9663580668     -1.2859358236
C     2.3443887598     -2.0702878737     -1.4781582666
C     2.9281713948     0.3268364342     -1.7854072846
C     1.3792387506     -1.9533066436     -2.460554562
C     -0.2790374857     -3.08040002     -0.9666261498
C     0.0883373705     -2.5990618142     -2.2609530973
C     -2.0627373832     -2.8070892568     0.6961858662
C     -3.1161160768     -1.8342456415     0.8044646177
C     -1.6826022487     -2.9743886452     -0.6525687493
C     -3.4333153123     -1.3911483562     -0.5078208929
C     -2.615528599     -2.1739649589     -1.4562647133
C     -3.3392723917     0.8956074806     0.3897480495
C     -3.631365973     -0.0369131328     -0.7066940692
C     -1.7941722804     2.8698307313     0.3192434698
C     -2.8682999589     2.0856214407     -0.2048460065
C     0.3934111011     3.3722457517     -0.6643088107
C     1.3526974845     2.6398362321     -1.4686298351
C     -0.9667923108     3.1869475188     -0.8253734942
C     1.7759457935     0.5102969604     -2.632841262
C     1.1677144638     -0.681737747     -3.1189441294
C     0.9274066896     1.7057139584     -2.4424315486
C     -0.8510817678     -1.897451277     -3.065480445
C     -2.1594343583     -1.5736145962     -2.6157175423
C     -0.2152224278     -0.676381809     -3.4806174452
C     -3.1365380352     0.5937455217     -1.9470933563
C     -2.7230464575     1.9145075793     -1.6252066549
C     -1.4436016263     2.4276866074     -1.9741129391
C     -0.530119394     1.642450479     -2.7428012636
C     -2.3668981573     -0.1287636245     -2.840594335
C     -1.0785467662     0.4219561817     -3.2809513337


