58

 C     1.581396986     -0.174464406     4.4865740808
C     0.6582791359     -1.2178594336     4.5517126959
C     1.0942910781     -2.3679465236     3.7952138128
C     2.5970301083     -0.6198479155     3.5219788631
C     2.3629493625     -2.0266185607     3.1817665471
C     2.614708778     0.3016097839     2.4632672731
C     0.8683300614     0.9238210311     3.8824580125
C     1.5427959742     1.3045854336     2.7059848326
C     -0.6589606725     -0.810789551     4.0795025529
C     -0.5436123967     0.5551110428     3.6915916218
C     -0.0078595663     -2.7984984208     2.9887209957
C     -1.0900522626     -1.7878285917     3.1149318508
C     0.2460618452     -3.3201090323     1.7181040814
C     2.5737064656     -2.4420374725     1.8595606798
C     1.5843231131     -3.2854398561     1.2369833212
C     2.8334866809     -0.1035106399     1.1018080772
C     2.9577940799     -1.4826006271     0.8259318197
C     2.3853017806     0.7955672767     0.033906221
C     0.8487732658     1.8891901905     1.6172698086
C     1.4682056722     1.8861320011     0.3053727408
C     -1.2242730679     1.002601886     2.5497863643
C     -0.5954378776     1.9616985159     1.6498854225
C     -1.8059361733     -1.3739076986     1.9818776124
C     -2.0994971608     0.0472897076     1.8866559152
C     -0.6258302181     -3.002728426     0.5698588918
C     -1.6643633516     -2.0787384944     0.6722709981
C     1.5326705048     -3.0186788954     -0.1684539742
C     2.4317989814     -1.9597739275     -0.4625051638
C     0.1867355982     -2.9488725787     -0.6336310191
C     2.4327632716     0.3255176902     -1.3233069694
C     2.1378400477     -1.1072211415     -1.5085188398
C     2.0763427804     1.1935677473     -2.3397316201
C     0.8219525001     2.6012792661     -0.7802149671
C     1.381523917     2.4279393819     -2.0793447974
C     -1.3108385323     2.4153032947     0.4891785182
C     -0.6019120011     2.9642652704     -0.6626700617
C     -2.7752526021     0.4963685457     0.768993022
C     -2.611944598     1.8279062131     0.2757954528
C     -2.1711342083     -1.4690209505     -0.5668917485
C     -3.0587895183     -0.3587622397     -0.4018779505
C     -0.1287826549     -2.1324144116     -1.7326421701
C     0.9745696314     -1.4109010734     -2.3538422654
C     -1.4529937935     -1.5405761642     -1.8235779701
C     1.509418548     0.6538731534     -3.5810304243
C     0.6890823964     -0.5353007681     -3.3959927258
C     0.625266735     2.7289973171     -3.2824422495
C     0.7510149841     1.6156494198     -4.2170643774
C     -1.3457067025     3.1825912857     -1.8835227894
C     -0.7161997339     3.0577597177     -3.1591407875
C     -3.2213356735     1.8565523024     -1.0064124281
C     -3.411882488     0.4617821796     -1.4582071224
C     -2.6515938694     2.5601702472     -2.032820298
C     -1.7608896945     -0.6136357091     -2.9387143574
C     -0.6706087404     -0.229330804     -3.8158109425
C     -0.6045251776     1.07983548     -4.4223627039
C     -1.5107812042     2.0557314543     -3.9738797571
C     -2.8246571785     0.3443950307     -2.7673043895
C     -2.6227631653     1.7003224669     -3.2350272362


