58

 C     1.2925656467     0.0447864762     3.7750198421
C     2.4384955938     -0.2084390577     3.0665290626
C     2.4186633311     -1.6217895849     2.6552442284
C     0.4712195164     -1.1906729208     3.793961977
C     1.1192771802     -2.1627671183     2.9672793475
C     -0.8483322313     -0.7977095211     3.5697961253
C     0.4706306338     1.1652853816     3.4651130562
C     -0.8984209658     0.6849672182     3.5490720366
C     0.8523039105     2.0703729024     2.4042297139
C     2.7942933301     0.5987809755     1.9235685895
C     2.0005642151     1.7258215302     1.54113115
C     2.9439698606     -1.7028778574     1.3682971519
C     3.2773274444     -0.3309391043     0.934009916
C     2.3488944708     -2.5725856018     0.4235025342
C     0.3675783042     -2.8193614764     1.9178151854
C     1.0506630162     -3.1120260134     0.6863039924
C     -1.6397068402     -1.5038946722     2.6316366379
C     -1.0304699032     -2.494866375     1.8070614976
C     -2.6002942296     -0.7843201859     1.8032080493
C     -1.894431024     1.3325388894     2.8492485251
C     -2.7761825093     0.580135065     1.9333022979
C     -0.2140237556     2.8279102946     1.8321295788
C     -1.554532177     2.5327600657     2.1759816759
C     -0.20360498     3.2589515459     0.4283028238
C     1.9575005016     2.0844618348     0.1091339907
C     0.8565631555     2.9009706968     -0.4355442466
C     3.2064737672     -0.0077664573     -0.4049592905
C     2.6376567185     1.2446382065     -0.8146440422
C     2.4301161305     -2.2738479374     -0.9915818072
C     2.89126766     -1.0247669401     -1.4025724639
C     0.3473316137     -3.2127772975     -0.5947868869
C     1.2462831762     -2.8100516608     -1.6389317906
C     -1.6980709667     -2.4652684598     0.5025184287
C     -2.6336859011     -1.3976418963     0.4878123603
C     -1.0384202782     -2.8767453626     -0.6911118437
C     -2.9164373807     -0.6339227585     -0.7063726196
C     -3.0211395973     1.4057125124     0.7528348904
C     -2.3489006778     2.6255013596     0.9700969445
C     -1.5761213553     3.2257549986     -0.051436582
C     -3.0850602829     0.8342941639     -0.5792435452
C     -1.8614095178     2.8611226519     -1.3652411515
C     -2.667793114     1.6645009162     -1.649337278
C     0.5373375017     2.8209844639     -1.8519102679
C     -0.8014890303     2.8888946806     -2.2921303965
C     2.1932464634     1.0739099414     -2.1968387058
C     2.3012306269     -0.3476048626     -2.5449760509
C     1.2014887276     1.8572653968     -2.7305366689
C     0.7582841863     -2.2281022811     -2.8207957632
C     1.3243459586     -0.9633786174     -3.3136382255
C     -1.5260772781     -2.3169113243     -1.9196904565
C     -2.4473036623     -1.1742979521     -1.9182356311
C     -0.6402158299     -2.1355147614     -3.0004902486
C     -2.1604345695     1.0892198596     -2.8921581499
C     -1.0259072884     1.8515005574     -3.2991954662
C     0.206782669     1.2506189904     -3.6297075091
C     0.2330775618     -0.1464819538     -3.8656224717
C     -2.102764367     -0.3083721885     -3.0463770327
C     -0.9642031192     -0.8759593951     -3.6760750472


