58

 C     1.2532729963     -0.0605084662     3.6493602829
C     2.4286011084     -0.3281436956     2.9595425398
C     2.3449171651     -1.7249676183     2.4489657325
C     0.3922439061     -1.2575467356     3.5960490291
C     1.0524346731     -2.2341081753     2.7998189813
C     -0.9082407532     -0.836316783     3.2822408173
C     0.4852082209     1.075294494     3.3211057281
C     -0.9039615692     0.6191355493     3.2189564681
C     0.9928937762     2.0463375531     2.3980682707
C     2.8930886106     0.5210919412     1.9370774418
C     2.2157713105     1.7498709932     1.6359715941
C     2.7886454386     -1.731552548     1.1326147941
C     3.3037819791     -0.3798260806     0.8454952566
C     2.0936090934     -2.4777810083     0.0851875612
C     0.3208541793     -2.918248811     1.7975393228
C     0.9084610298     -3.143562772     0.4824813797
C     -1.719481183     -1.5949215418     2.3327534207
C     -1.0686328678     -2.6735842989     1.6192348882
C     -2.7638129144     -0.9189489024     1.6828937029
C     -1.8642159085     1.3071799158     2.4458036024
C     -2.9102805559     0.5267109558     1.8150579984
C     -0.0059240898     2.878196715     1.7884393664
C     -1.4369895471     2.5151417688     1.8096941113
C     0.247068663     3.5018457237     0.5656583671
C     2.3554268057     2.2637775823     0.2556897782
C     1.3559095597     3.1319367061     -0.2591568425
C     3.3906039177     0.0606005836     -0.4327781949
C     3.0343245573     1.4515754879     -0.7309378534
C     2.2299780419     -2.0162238438     -1.3091003397
C     2.9810959026     -0.7969084575     -1.5532648761
C     1.2076943412     -2.3307717683     -2.2397899648
C     -0.1852709571     -3.3233260351     -0.4468025866
C     -1.4101794969     -2.9766583278     0.2248500365
C     -0.0142607377     -3.0118367431     -1.7966526854
C     -3.1797032183     -1.2954436619     0.3254019562
C     -2.4466692236     -2.2763294252     -0.4475469954
C     -3.4723781118     0.9837025559     0.6067112177
C     -3.6405318481     -0.1357708679     -0.2992793494
C     -2.0089677088     2.9253106168     0.5489962649
C     -0.9665965593     3.4971233263     -0.2287885144
C     -2.9106090775     2.0695474782     -0.1085585689
C     0.8139901545     2.9658001815     -1.6023347066
C     -0.6456644963     3.0161368813     -1.5075909172
C     2.6229906164     1.4574639855     -2.0712180943
C     2.5913841941     0.0836665273     -2.5655856672
C     1.4060262058     2.0778447208     -2.476885693
C     0.8008482665     -1.3706648911     -3.2679143502
C     1.4049950388     -0.1089861757     -3.3306150073
C     0.6024415615     1.1022284597     -3.237479356
C     -1.1149145654     -2.4681490329     -2.5069242192
C     -2.2791773154     -2.0130210795     -1.8560771832
C     -0.6088479994     -1.4196491777     -3.3810574485
C     -3.1688228129     0.261685168     -1.6016155213
C     -2.6492400402     1.6300017836     -1.4897043409
C     -1.4676775138     2.0124174068     -2.1695070081
C     -0.8066385752     1.0352314579     -3.0704705631
C     -2.549508433     -0.6713134085     -2.3994978525
C     -1.4113632343     -0.2717861761     -3.2245252012


