58

 C     1.5615470544     0.0204335604     4.1022726896
C     0.763174999     -1.185144613     3.9536831769
C     1.5172956481     -2.1390636245     3.2412660939
C     2.6339144739     -0.1180346136     3.1543919196
C     2.7290333254     -1.4519952451     2.7341271548
C     2.5557805593     0.9563996488     2.1482578116
C     0.7669266849     1.0771760995     3.6096235715
C     1.4323695255     1.7748749804     2.534064386
C     -0.5452554392     -0.8288359319     3.4483809337
C     -0.5661923606     0.6193405097     3.327048444
C     -1.2004676448     -1.6077085605     2.4481771463
C     0.9443688911     -2.8454681705     2.1702479542
C     -0.4551666975     -2.7361419018     1.8684813081
C     2.832844721     -1.7392859984     1.359588281
C     1.8728031687     -2.7751040139     1.0413256973
C     2.7932049342     0.7138220113     0.7779120003
C     3.0477223872     -0.6847637033     0.3739499199
C     2.2153039691     1.6590149248     -0.1960743679
C     0.6867923692     2.4900658711     1.5926962719
C     1.2696508051     2.6572345331     0.2666391025
C     -1.3476223426     1.2971113076     2.3710323548
C     -0.7668408344     2.4778000593     1.7252409919
C     -2.2226029205     -0.9292113367     1.6397016643
C     -2.3409492294     0.5235191721     1.6545222881
C     -2.6879020882     -1.5906753598     0.457555984
C     -0.8332658417     -3.1959327442     0.5745914726
C     -2.0292306052     -2.7399242881     -0.0052351205
C     1.4746089753     -3.0198216499     -0.2930848848
C     0.1194286449     -3.3886280173     -0.5175545132
C     2.8282627181     -1.045308495     -0.9576833434
C     2.1544132693     -2.2734032049     -1.3193183534
C     2.1857917311     1.2913443496     -1.6097947845
C     2.5123332663     -0.0429693691     -1.9774563889
C     1.2814870634     1.9767687882     -2.5129277706
C     0.4920616015     3.3991989058     -0.6872423174
C     0.5682077151     3.0887559823     -2.086324586
C     -1.5112951716     3.1136584546     0.7119657192
C     -0.8611544524     3.7159886362     -0.3996188298
C     -3.0204080015     1.1759238849     0.5635494276
C     -2.697206668     2.4807674323     0.212292234
C     -3.0971022897     -0.8621760923     -0.749205385
C     -3.2800465767     0.4778434082     -0.7010808388
C     -1.8750542964     -2.662621823     -1.4624274695
C     -0.5495138342     -3.0534861764     -1.7719133826
C     -2.4349748576     -1.4646791116     -1.9126546707
C     1.5034405319     -2.0228195359     -2.5508181764
C     1.8019894921     -0.6963964247     -3.0168576287
C     0.1214365971     -2.3005937113     -2.752084881
C     0.3855892402     1.2085888852     -3.406459348
C     -1.7505863782     -0.6094753492     -2.8736403301
C     0.6023427375     -0.1385247668     -3.5493473373
C     -0.4913628597     -1.0920109576     -3.3173834506
C     -0.7960847873     3.020426892     -2.6268456736
C     -1.6613011749     3.4471777992     -1.6224758098
C     -2.7402836792     2.6330894834     -1.2630262719
C     -2.9220851125     1.3526984294     -1.8329007345
C     -0.9547783067     1.7414085053     -3.2473936897
C     -2.0153926693     0.8497722857     -2.8437556708


