58

 C     1.1444775269     0.3318919211     4.6007328853
C     0.4974273512     -0.864066898     4.1959085553
C     1.4305850705     -1.6403493533     3.4508013004
C     2.473847771     0.3610077986     3.9825578109
C     2.6589825628     -0.8504907954     3.2669453506
C     2.576689214     1.5631078636     3.2534383562
C     0.3883740678     1.4328992776     4.0737854064
C     1.2550930718     2.2862583325     3.3604798637
C     -0.7276348388     -0.5194351917     3.5061433441
C     -0.7739037624     0.9347799184     3.369370082
C     -1.1790970954     -1.2986734027     2.4382328793
C     1.0786637104     -2.2492996208     2.2333491593
C     -0.2658193004     -2.2636373535     1.8037607057
C     2.9338764673     -0.858112314     1.8698330687
C     2.0821849017     -1.854518655     1.2275948745
C     2.9575869528     1.5865396288     1.9014049624
C     3.1596592643     0.3614182037     1.1385838032
C     0.916284556     2.7853355264     2.1038601965
C     2.1057614764     2.5961840249     1.2725833336
C     -1.1983444793     1.5105815596     2.1291010114
C     -0.366320048     2.5066178303     1.4689653548
C     -2.1354460876     -0.694792705     1.5549046506
C     -2.0848326649     0.7218520243     1.2988020649
C     -2.6867800178     -1.5659251104     0.5823821449
C     -0.5102490681     -2.6790220989     0.4462760495
C     -1.8364857171     -2.6309459025     -0.0062709694
C     1.7871038211     -1.8531093259     -0.1309258149
C     0.5668877852     -2.570696216     -0.5457929448
C     2.9017551274     0.3663888367     -0.2946809526
C     2.323999401     -0.786514971     -0.9793290506
C     2.0113393748     2.6703056499     -0.0623677902
C     2.6519718131     1.6514609881     -0.9042738081
C     -0.4812211696     2.6866477331     0.0327149527
C     0.7322646679     2.9973052241     -0.6864509702
C     -2.4722043935     1.1739226999     -0.0321402551
C     -1.5837021281     2.0888879386     -0.7362894015
C     -3.4986437521     -1.0696469133     -0.4072939136
C     -3.353125501     0.319215206     -0.7841244968
C     -2.1954421594     -2.7829570677     -1.3817545505
C     -3.3322411299     -1.9060613089     -1.6179130133
C     0.2139977043     -2.6105969157     -1.8915257263
C     -1.1528051822     -2.8285075098     -2.3439691624
C     1.786387874     -0.6665144798     -2.3260666266
C     0.859169977     -1.6659605695     -2.8225761957
C     2.0577442062     1.7567614033     -2.1499149151
C     0.8688521366     2.6306208371     -2.0233822367
C     1.6601300539     0.6421946291     -2.9095696308
C     -1.4678422607     1.9419624137     -2.1942581207
C     -0.1735677475     2.0980222592     -2.787113186
C     0.400585767     0.9906792899     -3.5573965723
C     -3.3283175693     0.3203311277     -2.2017499578
C     -3.379922764     -1.0855609545     -2.722579842
C     -2.3388482087     1.0308815975     -2.9034154869
C     -1.3080939298     -2.0937594663     -3.5702415888
C     -0.0547437031     -1.3877257479     -3.851263173
C     -0.4030906286     -0.0004991783     -4.0939354859
C     -2.3864753201     -1.1961895199     -3.7314073076
C     -1.8064830367     0.1295078021     -3.9125390104


