58

 C     1.6308086389     -0.2081460777     4.5417191752
C     0.8074764387     -1.323616354     4.4937889574
C     1.2368649572     -2.2717290216     3.4939039223
C     2.5653157459     -0.3435624759     3.4450136734
C     2.2915446289     -1.6356414372     2.7653161971
C     2.4026534729     0.7792472422     2.6305054479
C     0.7749862793     0.9473840098     4.2856572975
C     1.3053154428     1.6380527519     3.1981009295
C     -0.5896455565     -0.9637177799     4.257058732
C     -0.6264195247     0.4796165531     4.1709392983
C     0.047698394     -2.6495509085     2.7887618174
C     -1.0735952801     -1.7613942767     3.1926294027
C     0.1666452164     -2.9610664089     1.4653250422
C     2.3314835229     -1.738462371     1.3369598267
C     1.3997738876     -2.6529435184     0.7667035815
C     2.5870627115     0.73390059     1.2008466653
C     2.6667988553     -0.5642663162     0.502473453
C     2.1107077877     1.8389441894     0.4837767683
C     0.45965979     2.3675648808     2.2915532169
C     1.0003259093     2.6627314307     1.0185043709
C     -1.4222196336     1.0267492618     3.1837020017
C     -0.9584603761     2.1543125974     2.3767232987
C     -1.9268093524     -1.2076454328     2.1589554648
C     -2.1998810463     0.1852390946     2.2842846388
C     -0.9064149272     -2.7177565201     0.5124343632
C     -1.9270070279     -1.7725904399     0.7977736931
C     1.0917457772     -2.6077430078     -0.6125761976
C     -0.340960648     -2.7804195876     -0.7874488351
C     2.4694584778     -0.5995628975     -0.9119478913
C     1.7901919669     -1.770911907     -1.5009532055
C     2.0003638307     1.825770212     -0.9285399754
C     2.3031185448     0.6511787044     -1.6767381023
C     0.1943690339     3.0029335085     -0.0855702854
C     0.8827334903     2.6501853864     -1.3141423094
C     -1.7296535152     2.1975842998     1.1895708601
C     -2.5017087143     0.9515216512     1.1236665167
C     -1.2315711286     2.773019804     -0.0140214771
C     -2.4650354386     -1.0287032654     -0.354576631
C     -2.8044250769     0.3766931537     -0.124811427
C     -0.9957839026     -2.2966885973     -1.9312628316
C     -2.1638022361     -1.4427525263     -1.7197802076
C     1.2424226936     -1.7210254869     -2.8006581407
C     -0.1300098968     -2.0887126745     -3.0538544694
C     1.830157165     0.6390118121     -3.0138215292
C     1.5508990213     -0.6111114081     -3.686856054
C     0.2127626133     2.4878304923     -2.5494591797
C     0.8460405665     1.6128003986     -3.5108666148
C     -1.8901102507     2.4420334664     -1.2096357448
C     -2.790884546     1.2877810199     -1.2315690133
C     -1.2466442663     2.5326469007     -2.5053211609
C     -2.4911270828     -0.5532541905     -2.8231561919
C     -2.8027400036     0.8021972974     -2.5324474568
C     -1.9682136345     1.6772315342     -3.3831826679
C     -0.5629185893     -1.2909257137     -4.1779855939
C     0.5376180514     -0.4354142086     -4.6265150265
C     0.0694716463     0.934961139     -4.5139017376
C     -1.7245981244     -0.5462563608     -4.0462236175
C     -1.3358347686     0.8864477981     -4.3288250574


