58

 C     1.2163746008     -0.0304345731     4.1217072095
C     2.4426667032     -0.2939582503     3.5991471058
C     2.3601377033     -1.6126210604     2.8863939332
C     0.3758758801     -1.2569144725     3.943161617
C     1.0054937922     -2.0773938584     2.9333933696
C     -0.9033722309     -0.8454689847     3.7820438976
C     0.4234721688     1.1129188717     3.6818953579
C     -0.9073272056     0.6555893965     3.7158386896
C     0.8584473331     1.8879935164     2.5174201544
C     3.0298787268     0.6338914504     2.7008628928
C     2.2105869603     1.6863251609     2.0977520321
C     3.0349795739     -1.4844570757     1.6863602136
C     3.5910489757     -0.1124149174     1.6425087388
C     2.463700736     -2.0333600094     0.4882085686
C     0.2878220686     -2.3928266983     1.7102290703
C     1.0653079965     -2.4644872829     0.4607326799
C     -1.7175111781     -1.3149593119     2.7204087784
C     -1.1466489691     -2.0721604914     1.6370709848
C     -1.863207481     1.0360816849     2.7947718126
C     -2.5607286958     -0.1943974609     2.3896703703
C     -0.1300997087     2.2766497865     1.4923291154
C     -1.5481840981     1.991597505     1.7511328011
C     0.2693930846     2.4811539161     0.0996557922
C     2.5434126811     1.7481249265     0.6962877877
C     3.4793068611     0.6331092023     0.4497816651
C     1.6333215421     2.1300163604     -0.3037099368
C     3.0395656061     -1.507423031     -0.7090830002
C     3.4202012911     -0.0597229464     -0.7246993459
C     2.4427632525     -1.7433723491     -1.920639916
C     0.3659024834     -2.5067540075     -0.8339380344
C     1.1229793398     -2.2710392103     -2.0265628698
C     -1.8378030763     -1.9934754218     0.334796692
C     -1.0930371518     -2.2868928162     -0.9056036306
C     -3.2987328733     -0.2037100162     1.2496670986
C     -3.0362759664     -1.223515016     0.2342395734
C     -2.4936578505     2.0560335067     0.7062397149
C     -3.5062017391     1.034100481     0.5882437657
C     -0.7548462595     2.5983914726     -0.9528859575
C     -2.1238121376     2.4356210424     -0.6370884847
C     -0.3896368288     2.348799713     -2.3478066402
C     1.9180101536     1.6554922835     -1.6926622459
C     2.8387357713     0.5488588509     -1.8775659027
C     2.473723286     -0.5172714171     -2.7391644571
C     0.9355969805     1.7926281073     -2.6790478605
C     0.5258398753     -1.6423778407     -3.199713332
C     1.3611455674     -0.4719136811     -3.563516486
C     0.7332360404     0.7903341551     -3.712169303
C     -1.6661428683     -1.8919617808     -2.1486143132
C     -0.8408158576     -1.5413181149     -3.2992004008
C     -3.4685308174     -0.6441525742     -1.0119236205
C     -3.7146101621     0.7626176633     -0.7876565322
C     -3.0305558312     1.7388274355     -1.5702249595
C     -2.8418957798     -1.0173491934     -2.2014797286
C     -1.3198615516     1.8719047587     -3.2804983097
C     -0.6447740286     0.8080407959     -4.041470723
C     -1.4099511723     -0.3525822643     -3.9085400486
C     -2.5926836971     1.3736325996     -2.8374276579
C     -2.6280218291     -0.0280485149     -3.1990577757


