58

 C     1.4794265921     -0.0268369839     4.4384274123
C     0.6318882089     -1.1864373304     4.392784615
C     1.2427311148     -2.1662197187     3.5623994628
C     2.5192384592     -0.2490316592     3.4473762769
C     2.4467039385     -1.5600168886     2.9577299492
C     2.5285317986     0.82062861     2.4779239742
C     0.6976501539     1.0218911401     3.8880451138
C     1.3764979558     1.6401948267     2.76833791
C     -0.7194775918     -0.7806539527     4.0647218451
C     -0.6705476892     0.6485584516     3.6992158447
C     -1.5054791599     -1.6390475769     3.2892482999
C     0.5230756975     -2.8077730318     2.5188432031
C     -0.875468662     -2.6854294955     2.4562397547
C     2.413991007     -1.8052036097     1.5476108893
C     1.2730772934     -2.6521915782     1.2760306349
C     2.859274047     0.566776881     1.1191975144
C     2.7780512646     -0.7975892783     0.5984109345
C     2.5008513899     1.605594292     0.238496764
C     0.6506163268     2.2706507292     1.7225611072
C     1.4090428604     2.479542466     0.5487700084
C     -1.4185396529     1.1652989841     2.5795354446
C     -0.7913107976     2.0808932796     1.593284439
C     -2.5074958548     -1.0581209513     2.4813944953
C     -2.4776295798     0.3358096463     2.1115397182
C     -1.5408851754     -2.6908412344     1.1790904165
C     -2.6905061586     -1.8245534883     1.2887716918
C     0.639438153     -2.6145325123     0.017242413
C     -0.815452735     -2.7001161874     -0.056729212
C     2.3829430404     -0.979358567     -0.7757758565
C     1.3666814979     -1.9828723024     -1.0725030564
C     2.5308112608     1.4459973192     -1.1815891999
C     2.5325656575     0.1278166142     -1.7287410177
C     0.8202730423     2.8971834011     -0.6856860693
C     1.6881918013     2.4706322414     -1.7641431572
C     -1.3794788932     2.298505965     0.28439163
C     -0.5953384193     2.8786930503     -0.8208943142
C     -2.921631171     0.4273552194     0.7572519642
C     -2.9933932119     -0.9488275118     0.2388841393
C     -2.5063481428     1.4398387801     -0.1052269115
C     -1.4791929109     -2.1852337506     -1.256357108
C     -2.6029205752     -1.2562353029     -1.0859397331
C     0.7224529963     -1.9624121978     -2.3334253878
C     -0.7257264957     -2.0289148703     -2.4266657144
C     2.0202420678     -0.0142947042     -3.0668909486
C     1.1845844025     -1.1346981015     -3.3836674475
C     1.176620123     2.3081085265     -3.0521525147
C     1.4759317438     1.100562653     -3.7748776023
C     -1.0744770323     2.8030020089     -2.1945448054
C     -0.1918301444     2.6369694669     -3.2830320924
C     -2.7638070388     1.171700652     -1.4976801091
C     -2.7591381968     -0.2076717285     -2.0056385031
C     -2.2110802768     1.9532729295     -2.4961912887
C     -1.1276954358     -1.1486293757     -3.5433195227
C     0.0765938729     -0.7070383873     -4.2066810613
C     0.280734298     0.6636830596     -4.5004604676
C     -0.7460081131     1.5912619263     -4.2094274524
C     -2.1657049236     -0.2169747461     -3.3271063914
C     -1.9721480269     1.1673338837     -3.7084109411


