58

 C     1.3465016654     -0.0456200991     4.1127080008
C     2.5293387885     -0.3681224557     3.473270466
C     2.3283396333     -1.6585722609     2.7361800451
C     0.4456902088     -1.2199370856     3.9689307292
C     1.0404797594     -2.1462697315     2.9987359408
C     -0.8191270282     -0.7530420119     3.7677981225
C     0.6018169351     1.1310743754     3.7151030218
C     -0.7741510585     0.7161715724     3.6241622747
C     1.1098760056     2.0067567595     2.7021780525
C     3.1273545911     0.5416069296     2.5921109725
C     2.4529949272     1.7298931578     2.2202215745
C     2.8164179386     -1.4831771411     1.4063406513
C     3.417483485     -0.1886182884     1.3443554736
C     2.0609000066     -1.9544190628     0.2897758771
C     0.2529710825     -2.6621705343     1.9190703325
C     0.8772585615     -2.7533017474     0.5908191338
C     -1.654640401     -1.2988677359     2.7408043945
C     -1.1905961268     -2.4003321285     1.9472479216
C     -1.5810018034     1.0275640818     2.5356530649
C     -2.2610095322     -0.1980240701     2.0709185212
C     0.1484784884     2.5732983956     1.7253358836
C     -1.1941895564     2.0252621752     1.5755171062
C     0.6951752692     3.2009374001     0.5638905063
C     2.7520387405     1.9201552996     0.8013096695
C     3.220457753     0.6370164979     0.2432414502
C     1.9903773073     2.7370108867     0.0432533472
C     2.1285169449     -1.2166765617     -0.9781594117
C     2.6518128959     0.1364771998     -0.9659461427
C     1.2528267837     -1.6190816103     -2.0815720702
C     0.0571138657     -3.1235364282     -0.5045637016
C     0.2933623904     -2.6313955715     -1.8697503403
C     -1.9367746694     -2.6246083525     0.774191406
C     -1.3332792561     -3.2632248653     -0.3367499545
C     -2.7861285554     -0.3093046525     0.7597907715
C     -2.8357028135     -1.6209846056     0.2253652867
C     -1.9007005336     2.0336918072     0.2905956122
C     -2.726215502     0.8707499022     -0.128772036
C     -0.0911527996     3.4267372441     -0.5582102297
C     -1.3829728801     2.8674364034     -0.7376073016
C     1.8536143299     2.4844203197     -1.3866952972
C     2.1287201572     1.1575150682     -1.9034163681
C     0.676923824     3.1385619401     -1.786621399
C     0.9999465407     -0.6823854072     -3.1677192567
C     1.3709861605     0.7434420963     -3.0074782489
C     -0.1720322595     -0.7507318403     -3.9223756126
C     -0.9972479278     -2.5881487471     -2.561025257
C     -1.980877809     -2.8304123442     -1.5558712
C     -2.9111345617     -1.8216215045     -1.2107862265
C     -1.2609585053     -1.6028102623     -3.5203176779
C     -2.9717540187     0.6609362375     -1.5010197915
C     -3.0524233456     -0.7047389439     -2.0622886973
C     -2.387473529     -0.7243927339     -3.3070544388
C     -1.5188465327     2.5278328531     -2.1520111939
C     -0.1809928277     2.6280043648     -2.7694426922
C     0.288033119     1.543139656     -3.5455046863
C     -0.6693394062     0.6310802569     -4.0797265008
C     -2.3645520167     1.5032501579     -2.5285350391
C     -1.9805328825     0.6445057255     -3.629654828


