58

 C     1.5552026417     -0.2620343834     4.2557099603
C     0.7700922253     -1.3646491529     4.3339298638
C     1.2320726617     -2.3246252574     3.3313848432
C     2.5522352136     -0.4384837985     3.1746160521
C     2.321570349     -1.7062212754     2.5519268351
C     2.4977660397     0.7157386139     2.3884537189
C     0.7334161226     0.9053015367     3.9200869201
C     1.4083141527     1.5901129791     2.9006486258
C     -0.6212902423     -0.9515769103     3.9907506013
C     -0.6320093811     0.480855664     3.7083579191
C     0.1055685893     -2.7017699448     2.6162752943
C     -1.0418154097     -1.7985742254     2.9884944472
C     0.2121797785     -3.1509001141     1.2798255269
C     2.3053017415     -1.8060324686     1.1184482417
C     1.4174513813     -2.8111651394     0.527999941
C     2.6811921459     0.6487836434     0.9703859779
C     2.6274400197     -0.6357476939     0.3016905711
C     2.3081782103     1.8204168297     0.2631037936
C     0.6799770042     2.3879348489     1.9992519207
C     1.3629105739     2.7615593373     0.8164083431
C     -1.3302960596     0.990146462     2.5685176654
C     -0.7659319435     2.1889380076     1.9277781045
C     -1.907658422     -1.3342729252     1.9240672943
C     -2.1058730871     0.0921898022     1.720966793
C     -1.0310072924     -3.2453066161     0.5927612947
C     -2.045415803     -2.2047612175     0.8424890963
C     -1.0394684172     -3.4949188191     -0.7815008457
C     1.3394547415     -2.8857776204     -0.8820928329
C     0.1506669947     -3.3990730755     -1.5094250342
C     2.3640310856     -0.6328336378     -1.1478328937
C     1.8349956246     -1.8124910628     -1.7121389818
C     2.1759439688     1.8628237213     -1.1666415031
C     2.1924906894     0.6405369535     -1.8917772144
C     0.6857162524     3.3979516218     -0.269092283
C     1.3072508509     2.9789325011     -1.518721069
C     -1.4079536346     2.7061052917     0.8063478546
C     -0.7163933904     3.5126111417     -0.1927960001
C     -2.5857712311     0.543771151     0.4163919938
C     -2.4334037427     1.9294262172     0.1163628548
C     -2.5367982283     -1.7648087871     -0.4515636612
C     -2.0361982434     -2.6317807401     -1.4402598126
C     -2.7397739983     -0.3673530168     -0.7146618709
C     -0.1243735823     -2.6260158673     -2.6984360115
C     0.9470061919     -1.7336583032     -2.8887413292
C     -1.4725104338     -2.1025211501     -2.6268181251
C     1.4472494114     0.6593020808     -3.1369163298
C     0.6833354918     -0.5258305993     -3.5062991527
C     0.5523083621     2.9308726831     -2.6992293282
C     0.7076227752     1.7912691918     -3.5356602125
C     -1.4726629162     3.4214946319     -1.4031915369
C     -2.5089709266     2.3841795061     -1.2079706045
C     -0.8796821764     3.219910435     -2.6310309531
C     -2.5352087231     0.0993813603     -2.0958701041
C     -1.7399958622     -0.7535852076     -3.0082049009
C     -0.6857927524     -0.1147647139     -3.7477118558
C     -0.6453506161     1.301720472     -3.8756269487
C     -2.5213726805     1.5154915988     -2.3276959736
C     -1.5959621449     2.1037754501     -3.2855249796


