58

 C     1.5974991973     0.0051770056     3.9474123868
C     0.7874252811     -1.1600207505     3.8080201094
C     1.3286095593     -2.0009053964     2.7766916721
C     2.6158571152     -0.0457325062     2.9869900123
C     2.4578453951     -1.2746443854     2.214009465
C     2.6450579989     1.2112552736     2.2727366177
C     0.7689180684     1.1534969213     3.5920545333
C     1.4404672447     1.9554992767     2.6181608078
C     -0.5758563552     -0.7356609165     3.657207187
C     -0.5569267637     0.712402716     3.3600792882
C     -1.435948886     -1.5450845851     2.9807475
C     0.4577928642     -2.7801105572     1.9571026087
C     -0.9397503725     -2.7447918277     2.3234700376
C     0.7939782994     -2.9626195289     0.5331222489
C     2.6830044064     -1.2671145206     0.8155744948
C     1.8813608464     -2.1641319969     -0.0432595615
C     3.0612544557     1.2037418306     0.9595412582
C     3.1992314226     -0.0431121401     0.2428019986
C     2.5730636309     2.2127946181     0.0429606215
C     0.702483106     2.627409377     1.6125774422
C     1.4200509949     2.9945703036     0.3777650555
C     -1.3145605126     1.2456657468     2.265627886
C     -0.7276624106     2.346715096     1.5251228161
C     -2.4531397425     -0.962053517     2.0904164906
C     -2.3206945757     0.3851452562     1.6179144561
C     -1.9284985966     -3.0987161739     1.3751924495
C     -2.8611860113     -1.9804440165     1.2188088127
C     -0.2499559796     -3.4154151157     -0.3576523975
C     -1.5941344048     -3.5201540408     0.1030029582
C     -0.3273956929     -2.9524561007     -1.7361341196
C     1.8335743886     -1.8579361407     -1.4396779157
C     0.6973787674     -2.2060286023     -2.2635291343
C     3.0074102032     0.2804081547     -1.1359880572
C     2.7352686127     1.6981945473     -1.2885229025
C     2.3612672894     -0.6308459879     -1.9736622232
C     1.9191380551     2.1636130046     -2.3360364529
C     0.6762226399     3.5313850981     -0.7163966343
C     1.0145980976     3.2064126697     -2.0695147759
C     -1.4049533489     2.7538894738     0.3378484907
C     -0.758917239     3.5082056059     -0.6482747193
C     -2.7819304578     0.6625083682     0.2483410976
C     -2.3945701188     1.8903065505     -0.3138605661
C     -3.1355585354     -1.7684339782     -0.1758306062
C     -2.4587252058     -2.8103061821     -0.8693971454
C     -1.7101630659     -2.5367628225     -2.0193766053
C     -3.1177179757     -0.4363289009     -0.6846035232
C     -1.9434458098     -1.3273770556     -2.6908923967
C     -2.7146916806     -0.292357158     -2.0536990922
C     0.4385822544     -1.1199141473     -3.2130427865
C     1.5073703006     -0.1621539201     -3.0648222396
C     1.2758518979     1.1995774164     -3.2519881558
C     -0.8703888561     -0.673199148     -3.4245600365
C     -0.2267470001     2.9121710975     -2.8046879171
C     -1.2990273822     3.1221850956     -1.9541849774
C     -2.2850488279     2.100602088     -1.7536240538
C     -2.2725977012     0.9786653867     -2.5845387399
C     -0.0784710475     1.6654026345     -3.5110027156
C     -1.1418978264     0.7474114969     -3.4825403419


