58

 C     1.7083264519     -0.1545539776     4.3466112163
C     0.9141094224     -1.2725835969     4.3603940018
C     1.377862257     -2.2401046839     3.3931321418
C     2.6725816056     -0.3235392933     3.2419453498
C     2.4472774045     -1.6155971137     2.6213054632
C     2.5173155011     0.7824318118     2.4047377725
C     0.8396358681     0.9631286629     4.0111884794
C     1.4115872695     1.6396301614     2.9385364891
C     -0.4985610857     -0.926618433     4.0691112551
C     -0.5507397538     0.4874981848     3.8508689334
C     0.2271793113     -2.6788226133     2.7057172219
C     -0.9252169941     -1.7944091883     3.0441486966
C     0.3575930062     -3.0696023247     1.3940555266
C     2.4526260501     -1.7532903281     1.1902247902
C     1.55207405     -2.7206811721     0.6525093612
C     2.6711421726     0.6944026007     0.9766539332
C     2.6985792024     -0.5877749008     0.3180728246
C     2.2051371224     1.8300329843     0.2571565887
C     0.59680491     2.3795554728     2.04208393
C     1.1976413908     2.7206023561     0.8117261843
C     -1.3360242234     1.0017951193     2.7958239509
C     -0.8484862573     2.1987233096     2.0878600813
C     -1.7891727553     -1.3419921254     1.9934299209
C     -2.1518124077     0.0617014806     2.0056795433
C     -0.747078413     -2.9880559255     0.4771004592
C     -1.8030114625     -2.0640765106     0.7092698943
C     1.2175502964     -2.750381132     -0.730491452
C     -0.184747583     -3.0943641223     -0.8339959594
C     2.4244468209     -0.6511129885     -1.1288961368
C     1.8005360265     -1.8569597899     -1.6782206877
C     2.0876158981     1.8071068386     -1.1570089111
C     2.2684690679     0.5847766901     -1.884954276
C     0.432210565     3.2115263415     -0.2902325031
C     1.0574808859     2.7591549927     -1.528269551
C     -1.5905585405     2.6676442038     0.9838228267
C     -0.9541772053     3.2388684068     -0.2090135025
C     -2.851122159     0.5791970672     0.8822381133
C     -2.7113866626     1.9354433664     0.5231426407
C     -2.4543589316     -1.4558516441     -0.476574079
C     -3.013426865     -0.1641720631     -0.3533061848
C     -0.9050012982     -2.7257382234     -1.9620746577
C     -2.0708582879     -1.8426174935     -1.800829977
C     1.1445143209     -1.8134652495     -2.9574767808
C     -0.200529285     -2.3204575296     -3.0876466258
C     1.6641885537     0.5648316478     -3.2060758781
C     1.1833200356     -0.6345751351     -3.7494622905
C     0.3104034012     2.6077616062     -2.6901044545
C     0.7146612919     1.6087615605     -3.5996499596
C     -1.7628903126     2.8876206998     -1.3902266537
C     -2.8100836596     2.0518558183     -0.9173524022
C     -3.0172697491     0.7716233618     -1.4788834337
C     -1.158072893     2.582663498     -2.608180858
C     -2.1223368323     -0.9560090519     -2.9433763762
C     -1.0165910943     -1.3198695349     -3.7920023901
C     -0.1718704632     -0.3693363886     -4.3332653105
C     -0.4577415488     0.9948822635     -4.1550369916
C     -2.4488634256     0.4381021261     -2.7560005717
C     -1.6008799906     1.4352898806     -3.3899387451


