58

 C     1.1711664071     -0.1188035975     4.0924707394
C     2.261876137     -0.317045247     3.2724188596
C     2.0990394243     -1.5924641502     2.5591833406
C     0.2913397276     -1.3081154585     3.9201754875
C     0.8204925161     -2.135713428     2.8601219026
C     -0.993748861     -0.8458372139     3.8288973044
C     0.3492964705     1.0694894962     3.9546523749
C     -1.0105461858     0.6326794701     3.9341073472
C     0.743277121     2.0478822971     3.0048313317
C     2.6673018689     0.6541891847     2.2906584604
C     1.9471645064     1.8446157112     2.2075381291
C     2.5645219524     -1.4432732809     1.241899418
C     2.9760949053     -0.067782999     1.0517378522
C     1.9423858368     -2.1534666691     0.179970965
C     -0.0068048659     -2.5430677782     1.7572596696
C     0.6601990211     -2.7718854143     0.4817168925
C     -1.8660932035     -1.2412688121     2.7596397446
C     -1.4194415691     -2.1350892997     1.733759688
C     -1.9368005862     1.1010707623     2.9963483767
C     -2.6328852697     -0.0722157336     2.4164075016
C     -0.2337461716     2.6231712931     2.1143907884
C     -1.5914594995     2.1887283456     2.0967079571
C     1.7379965602     2.423087302     0.895137185
C     0.4243943391     2.9627751105     0.8475267697
C     2.893269177     0.5159382991     -0.2224542331
C     2.3349363209     1.870779527     -0.2798576955
C     2.2923430126     -1.7392170776     -1.1740266382
C     2.7865344258     -0.385837823     -1.383385153
C     1.586037665     -2.3993725841     -2.249830572
C     -0.1636003196     -3.0748546693     -0.6413996584
C     0.3777359838     -3.0451760407     -1.9427216654
C     -2.1171780763     -2.0398597128     0.4457288569
C     -1.5210728725     -2.6118812927     -0.6999257239
C     -3.2392934441     0.0393968489     1.1779646367
C     -3.0244227066     -0.978682691     0.1890250347
C     -2.3172105745     2.2695657485     0.8468676918
C     -3.2999857738     1.3154092472     0.5100794573
C     -0.2942498078     3.0381715138     -0.3878050444
C     -1.6739605041     2.7083309413     -0.3947482641
C     1.7824287484     2.296296326     -1.5127743084
C     0.4279599834     2.8026467106     -1.5831459809
C     2.5522535508     0.2396452444     -2.6653006295
C     2.0459745022     1.5533848655     -2.6840235429
C     1.3643635893     -1.723607602     -3.5189609575
C     1.8237732027     -0.4634302313     -3.7154362724
C     -0.6729198002     -2.5496401174     -2.8594733077
C     -1.7595893839     -2.111781547     -2.0544362276
C     -0.1078149887     -1.7270447134     -3.7996706117
C     -3.036253093     -0.3130927856     -1.1225424204
C     -3.1989215744     1.0651274996     -0.8951079173
C     -2.2216504442     1.9418498075     -1.476864434
C     -2.2921299346     -0.8030053635     -2.2457861649
C     -0.1966237168     2.1989625551     -2.7502477517
C     0.8399911333     1.6005307535     -3.5282844909
C     0.6667332963     0.3882567781     -4.1447870305
C     -0.547389795     -0.3667187657     -3.979030309
C     -1.4567794348     1.5343560276     -2.6193693559
C     -1.5983089081     0.1528944622     -3.1358274319


