58

 C     1.3688258794     -0.0298878923     4.0371182468
C     0.6013378761     -1.1584280788     3.9797323303
C     1.2313860972     -2.0834484682     3.0151418925
C     2.4452424843     -0.118023136     3.0495991908
C     2.2689749789     -1.3461104811     2.2971780153
C     2.4618999823     1.0676043097     2.3524726516
C     0.5516296784     1.1366486189     3.700936359
C     1.2478229855     1.8720285273     2.7700730006
C     -0.7909716092     -0.7434728175     3.7107627733
C     -0.7756447077     0.671196343     3.3444214823
C     -1.5893359266     -1.6126490786     3.0229034165
C     0.414868711     -2.9405968337     2.3335265511
C     -1.0236607027     -2.8790927672     2.5699421468
C     0.6049867402     -3.1709332704     0.9065511032
C     2.2953273044     -1.3477015966     0.8658362808
C     1.4534511407     -2.327043771     0.1422522603
C     2.8141823164     1.0846348533     0.9805554231
C     2.7003441921     -0.1169536425     0.1760042003
C     2.6457102149     2.3623794067     0.3927323186
C     0.5561485629     2.5807650795     1.7572409199
C     1.4316333601     3.1668038484     0.8103328196
C     -1.4167686811     1.1118623294     2.1426688186
C     -0.7893513056     2.1952519968     1.376338703
C     -2.4697256354     -1.1336874442     1.9641455653
C     -2.3304410142     0.1800908448     1.4437800562
C     -1.6774128251     -3.2609879739     1.4049537804
C     -0.6878022151     -3.5842103368     0.3882379796
C     -2.6828718567     -2.2623151296     1.0744728206
C     -1.0034570289     -3.3796766831     -0.9288995302
C     1.1172044869     -2.1013505585     -1.2835486255
C     -0.0429191256     -2.731881071     -1.8089434131
C     2.49532866     0.061124908     -1.2665298601
C     1.653766043     -0.9160077208     -1.9934582278
C     2.8214043998     2.5316911451     -0.9609445921
C     2.6549349506     1.3726232409     -1.8178321895
C     0.9277915361     3.7863629611     -0.3096073036
C     1.8787041476     3.5617355706     -1.399076489
C     -1.2167667889     2.5206883607     0.0103024554
C     -0.3896851446     3.3899305055     -0.7705883015
C     -2.6726457093     0.409731748     0.0200285383
C     -2.1301258668     1.5911267201     -0.6919303666
C     -3.0009347665     -2.056186403     -0.2418364691
C     -2.3146316928     -2.8407285254     -1.2571589672
C     -3.1114968723     -0.6987003876     -0.7534590945
C     -0.8219941619     -2.1014361123     -2.8636145322
C     -2.2060272763     -2.075709451     -2.4150736978
C     -2.8194718893     -0.7779456425     -2.1765514108
C     0.9871930842     -0.4786397183     -3.168440796
C     -0.3216915235     -1.0052949743     -3.5151478061
C     1.786389047     1.8260379968     -2.9021634259
C     1.2098838401     3.1282203522     -2.508436363
C     -0.23596876     3.1660136179     -2.2065423351
C     0.9648454097     0.9334849464     -3.5301918798
C     -2.0875196777     1.558606184     -2.1108460818
C     -2.3167615878     0.3166003315     -2.8289127869
C     -1.1950122459     0.137085117     -3.7382896524
C     -1.0393595619     2.2614330221     -2.8408148695
C     -0.4307619175     1.2973371124     -3.7514030579


