58

 C     1.5265291477     -0.0348187078     4.3307608994
C     0.7176329432     -1.2106333971     4.0102355448
C     1.4404404254     -2.011966321     3.1194880175
C     2.64086443     -0.0245430727     3.4137787715
C     2.6538192273     -1.2402651861     2.7240381085
C     2.5725402365     1.1726826929     2.587683189
C     0.7365145945     1.0731473249     3.9914631552
C     1.3952391246     1.9031989904     2.9976833728
C     -0.6134950666     -0.8131692685     3.6278807231
C     -0.6267958818     0.6544615343     3.7197322711
C     -1.2816690769     -1.4303314086     2.5331186302
C     0.8534420715     -2.5100687213     1.9425128662
C     -0.5357710464     -2.3555367698     1.6730956606
C     2.7938890523     -1.3224001993     1.3183748256
C     1.7851377383     -2.2364859275     0.841478289
C     2.9390891709     1.1392094354     1.2068572864
C     3.0721428342     -0.159968907     0.5179426609
C     2.4436987288     2.2229110952     0.4199461465
C     0.6088704017     2.6215535791     2.036671914
C     1.203948697     2.9023997416     0.7853860263
C     -1.3996764837     1.3901477173     2.8413552231
C     -0.8125251822     2.4419209762     2.015862442
C     -2.3690349692     -0.6783511257     1.8980220197
C     -2.3999721603     0.7344733189     2.0533694128
C     -2.9476143323     -1.1972404841     0.7041119452
C     -0.9671869078     -2.6122350395     0.3041683567
C     -2.2712877073     -2.2346670557     -0.0718242307
C     1.4007301182     -2.3041381046     -0.4937500099
C     0.0400979942     -2.7625550005     -0.7752114872
C     2.8196414439     -0.2752610829     -0.9005790548
C     2.1180923056     -1.4510253972     -1.4363764033
C     2.4794768328     2.1455968719     -0.9757035564
C     2.6693570672     0.9361924236     -1.6548412889
C     0.4221526596     3.1053346351     -0.4217887937
C     1.2532678189     2.7480433268     -1.5177807721
C     -1.5664992239     2.5177794385     0.7943418822
C     -2.6446608453     1.5699683479     0.8906536976
C     -0.9622547929     2.7814605586     -0.4782267364
C     -3.5729734793     -0.3341555218     -0.2308128391
C     -3.2227469034     1.0458621064     -0.2458103286
C     -2.6434106275     -2.0645046179     -1.4682119017
C     -3.3775451392     -0.8494048199     -1.5564454995
C     -0.3693919291     -2.7621071464     -2.1212882598
C     -1.7390920394     -2.3624942417     -2.4950721351
C     1.6397685714     -1.4369126821     -2.7680485825
C     0.5053134543     -2.2119589957     -3.1134483045
C     1.8189624675     0.9910166304     -2.8492652021
C     0.8195995641     2.0591055898     -2.6380584591
C     1.4547915835     -0.1535574996     -3.4796875297
C     -1.5031800455     2.1350908337     -1.7077136986
C     -2.6828411058     1.3602048672     -1.5768591749
C     -2.9335240193     0.2025056926     -2.4275738789
C     -0.5914412921     1.7869369895     -2.8317207275
C     -1.6677359178     -1.5049440268     -3.6376354139
C     -0.3107501052     -1.4963430395     -4.0866969223
C     0.1645706889     -0.186451505     -4.1503624603
C     -2.0739191231     -0.1239790035     -3.4799917206
C     -0.9026259807     0.7112695386     -3.7092279358


