58

 C     1.5716191839     -0.0917042107     4.0493896548
C     0.764377585     -1.2286799251     4.0038567403
C     1.3682641682     -2.1531945245     3.0587254128
C     2.6292002226     -0.2038799937     3.0575321307
C     2.4663140437     -1.4424952751     2.3765113411
C     2.6643699725     1.0114046869     2.3139766622
C     0.7954358759     1.0611835933     3.6884112856
C     1.4916552005     1.8203220763     2.7063477352
C     -0.6135238363     -0.7884998155     3.7477137069
C     -0.5708717035     0.6501055434     3.4665432026
C     -1.4343672095     -1.5844096753     2.9844864246
C     0.5405346836     -2.9583445902     2.3031096426
C     -0.9073682811     -2.8291523679     2.4626491172
C     0.8049583195     -3.2091431993     0.8896337211
C     2.5978513145     -1.5140491972     0.9349800557
C     1.7715661047     -2.4638994416     0.1590755074
C     2.9712137032     0.9437944891     0.9645936025
C     2.9976497249     -0.3217073283     0.2786154469
C     2.4402562216     1.923161208     0.0502128579
C     0.7679355188     2.5371944612     1.7422750896
C     1.4183865379     2.8232275388     0.4479617428
C     -1.285048613     1.2065621837     2.3896211715
C     -0.6831580098     2.3552996714     1.7129262412
C     -2.2705887498     -1.007971193     1.9287323938
C     -2.2205355053     0.3539390199     1.6066032209
C     -1.509572318     -3.0736762694     1.2288852826
C     -0.4894851487     -3.4787249106     0.2893130951
C     -2.392865272     -1.985905606     0.8649901127
C     -0.7024961216     -3.2380904458     -1.0284175052
C     1.5545444427     -2.2503688516     -1.2897757429
C     0.3961354031     -2.8523762592     -1.8792134274
C     2.6748995751     -0.0553995617     -1.112675759
C     2.4253252076     1.3487661132     -1.2739764197
C     2.0454500194     -1.0207619806     -1.9361737005
C     1.5700353581     1.8638814788     -2.2951506489
C     0.6484781459     3.4191981377     -0.5808810246
C     0.7621475048     3.0037276801     -1.9663773589
C     -1.3898589518     2.8960770453     0.6336432519
C     -0.7427121875     3.7163506423     -0.344470833
C     -2.6372088432     0.7588375636     0.259292995
C     -2.4404691599     2.1241807296     -0.0637113119
C     -2.5591907004     -1.6140503862     -0.4855984156
C     -1.9077194972     -2.4780287697     -1.4657808081
C     -2.7861097664     -0.2151268935     -0.8258050555
C     -0.2114809454     -2.3031957118     -3.0398091174
C     -1.6506499443     -2.0235179584     -2.7361701426
C     1.3834999487     -0.4807707804     -3.1087988995
C     1.1018996799     0.9243827067     -3.2585306594
C     0.2823133012     -1.2045192877     -3.6844082583
C     -2.56940568     0.229135423     -2.211078068
C     -1.9493533195     -0.6892235827     -3.1491746356
C     -0.2870938035     1.0437504508     -3.7465807075
C     -0.8142973504     -0.249653264     -3.8967664389
C     -0.5574581287     3.1557475468     -2.5457445458
C     -1.4562511068     3.6426458538     -1.5702777488
C     -2.4160408798     2.5633699121     -1.4054780902
C     -1.1370678478     2.0269388787     -3.2322924349
C     -2.3140680562     1.6073366323     -2.467491097


