58

 C     1.041794483     -0.0380958403     4.176691497
C     2.2514331399     -0.2308809618     3.5609258723
C     2.2219785265     -1.5340149524     2.837629276
C     0.2273427719     -1.2516141966     3.9201699983
C     0.9220516327     -2.0762666237     2.9326728299
C     -1.061773182     -0.8393201317     3.6971135137
C     0.2282612972     1.1240018362     3.832651436
C     -1.0942495999     0.6483384169     3.6327996615
C     0.7324689383     2.0385193756     2.8750491316
C     2.8362061094     0.7400814965     2.6833126036
C     2.086107002     1.9058257671     2.3767398245
C     2.8637707335     -1.3665470185     1.6118211488
C     3.4290493837     -0.0005193593     1.5913980445
C     2.2887513222     -1.936979407     0.4102769533
C     0.2351307737     -2.5062214507     1.7397897152
C     0.9471986681     -2.4918640459     0.4525850202
C     -1.8124263835     -1.3486000936     2.6187692997
C     -1.2093669376     -2.2923163334     1.7191448812
C     -1.8849706702     0.9959195435     2.5292776407
C     -2.5104450178     -0.2242352245     2.0267775335
C     -0.1144347473     2.4704149356     1.7631378646
C     -1.4198502399     1.9410657275     1.5453479599
C     2.0997247672     2.4094865853     1.0158600657
C     0.729532051     2.7745755933     0.6363361567
C     3.6185990007     0.6044041768     0.3636070316
C     2.9511939557     1.8808048315     0.065322995
C     2.7634322379     -1.397586346     -0.8242067382
C     3.5097511869     -0.1889836162     -0.8035658185
C     1.9512694035     -1.4055725464     -2.0431974114
C     0.1872966576     -2.5852723093     -0.8154750638
C     0.6699024009     -1.9775310153     -2.0778758157
C     -1.8929196548     -2.4406662026     0.505596118
C     -1.2075393337     -2.7744341534     -0.7203200518
C     -3.0661353635     -0.2868511374     0.7555919432
C     -3.0190840368     -1.5986445265     0.1596100156
C     -1.9620491779     1.886330232     0.1907081018
C     -3.0121388225     0.8957346473     -0.1233401579
C     0.2583383028     2.7159875445     -0.6818621007
C     -1.1751443597     2.4504138848     -0.8934087212
C     2.5285891506     1.8551577161     -1.3223835337
C     2.9960425654     0.6358799312     -1.8754830489
C     2.1978216743     -0.1538381902     -2.7349085007
C     1.2379053163     2.3363849708     -1.7315826895
C     1.1760391392     0.4843791832     -3.4117550351
C     0.7473528998     1.792712129     -2.9410115995
C     -0.2884422771     -1.4746372859     -3.1268554562
C     0.0000591909     -0.2474473177     -3.7992585236
C     -2.0868740553     -2.4443706784     -1.8056787922
C     -3.2524000169     -1.735148525     -1.2176750423
C     -1.6980279313     -1.7954678654     -2.9650982879
C     -3.403257422     0.7015717166     -1.4761026663
C     -3.5670071166     -0.6585761793     -2.01011904
C     -2.753641306     -0.7716673354     -3.2256504628
C     -1.6190433275     2.2169865579     -2.2342117527
C     -0.6332358225     1.8888688478     -3.262781205
C     -1.0547131301     0.7553136497     -3.997734842
C     -2.7540805942     1.4353570041     -2.5017793896
C     -2.3811442162     0.489654599     -3.6033924067


