58

 C     1.5241915692     0.0658628055     4.0401562294
C     0.7312316787     -1.1127547965     3.8608590239
C     1.3527746388     -1.9076498926     2.8638233186
C     2.5612070835     0.0644464483     3.0010794133
C     2.5438922347     -1.1949239302     2.3600030431
C     2.4924815763     1.2532582966     2.2287494587
C     0.723890026     1.1800392915     3.8225795104
C     1.3899678049     2.0241352655     2.8321560217
C     -0.6346039745     -0.6837180277     3.6251359931
C     -0.6598361032     0.7663920975     3.5893469809
C     -1.3994449477     -1.3642784176     2.6736709213
C     0.5621085214     -2.6655474001     1.9218587535
C     -0.839296108     -2.4392082549     1.88342685
C     1.1919422295     -3.0428276785     0.7142575732
C     2.9276438     -1.3005612821     1.0065381159
C     2.4539352394     -2.483780873     0.3342226191
C     2.6530816242     1.200829601     0.8021437637
C     3.0798350337     -0.0627059944     0.2208863222
C     1.8989308964     2.1576987133     -0.0295026976
C     0.6085642559     2.7893935013     2.0391110934
C     0.9843866056     3.0257325737     0.6395176321
C     -1.4585597244     1.4778011794     2.6533031595
C     -0.866235088     2.6698090885     2.090202249
C     -2.3583222881     -0.6637736914     1.8547639254
C     -2.4177367194     0.7525172759     1.7907100544
C     -1.5599335581     -2.5013303425     0.6231228018
C     -2.584036687     -1.4897048554     0.6794378362
C     0.4239026939     -3.2684352353     -0.533932664
C     -0.9568826573     -2.8464518239     -0.6105901829
C     2.5348085215     -2.5874698444     -1.0781309064
C     1.2829875258     -3.1241668748     -1.6223401744
C     3.0075148807     -0.1753546959     -1.200821652
C     2.8594099414     -1.4664800198     -1.8188288403
C     1.6242010073     1.8871922327     -1.4484569015
C     2.2696422738     0.7556727043     -2.0068218799
C     0.3914681523     2.3720904976     -2.1095648212
C     -0.1850931193     3.4393866143     -0.005366979
C     -1.3210356148     3.157045376     0.8761311266
C     -0.5387831277     3.1097244783     -1.3234715373
C     -2.9131228485     1.3376543833     0.5254419776
C     -2.3501912677     2.5766592559     0.0857236557
C     -1.9731415739     2.7790174023     -1.3090759019
C     -3.101223516     -0.9695586034     -0.4716018755
C     -3.3816917395     0.4630232916     -0.5250554216
C     -1.4512124802     -2.2279258222     -1.8635693432
C     -2.6361245368     -1.4371883438     -1.7739446072
C     0.8908233763     -2.3029126591     -2.7406907115
C     1.9449548634     -1.3623954865     -2.9503120554
C     1.6529698653     0.0038848886     -3.1260702662
C     -0.4750403157     -1.8951856559     -2.9242062341
C     -0.1920692192     1.6077028969     -3.1981619331
C     0.4057546588     0.3490937732     -3.6035456409
C     -0.6496258609     -0.6605626515     -3.6411268628
C     -2.4766800863     1.9466901035     -2.2967039304
C     -3.2722977829     0.8259097422     -1.8793991206
C     -2.8557371812     -0.344950897     -2.6624018792
C     -1.5906896546     1.4817513605     -3.3289425452
C     -1.8698547678     0.0613888713     -3.5557218286


