58

 C     1.1978573458     0.0469178544     4.0987150654
C     2.3162834317     -0.1723877363     3.3317657732
C     2.191587328     -1.4878126044     2.6740537288
C     0.333431978     -1.1717324934     3.9329089089
C     0.9172176237     -2.0391730731     2.9149193441
C     -0.9435849005     -0.7293442615     3.7921033516
C     0.3810435896     1.2180734199     3.8824443148
C     -0.9777604335     0.7554426264     3.8331270121
C     0.7982212576     2.1537556821     2.8948123162
C     2.7502722263     0.7495448471     2.3122104807
C     2.0079845873     1.9106131602     2.1185166615
C     2.7188525465     -1.4053446766     1.3795972939
C     3.1078432213     -0.0334448319     1.1295197637
C     2.1476176694     -2.1923575233     0.3401331896
C     0.133334243     -2.5148413837     1.7913076071
C     0.8151807859     -2.746460244     0.5118695621
C     -1.7788792681     -1.1859487804     2.7128565056
C     -1.2862631266     -2.1578420659     1.7664706289
C     -1.8668460198     1.159566891     2.8472112719
C     -2.4962937709     -0.0501202376     2.2513047145
C     -0.1622915074     2.690064739     1.9639929929
C     -1.5184175545     2.2367941481     1.9442284138
C     1.8043850718     2.4163553063     0.7538570738
C     0.5068837414     2.9845863339     0.6893925778
C     3.045962766     0.4967938181     -0.1832347032
C     2.3824332484     1.7900251444     -0.3882641596
C     2.6089519523     -1.8237504836     -0.9540075962
C     3.0129051055     -0.4650808339     -1.225835263
C     1.9620512252     -2.3174581181     -2.104782823
C     0.0294750244     -2.9765757271     -0.713023805
C     0.6665593516     -2.8787085216     -2.0134843931
C     -1.9716315277     -2.1835094555     0.5242123157
C     -1.3591021491     -2.6877936595     -0.6777317021
C     -3.0756994736     -0.0098313923     0.9626172111
C     -2.9326998021     -1.1832605685     0.1577379369
C     -2.2245245552     2.3091437673     0.7127765201
C     -3.156569493     1.2657525015     0.3019994553
C     -0.2065718906     3.0649894283     -0.5370358806
C     -1.6325000397     2.887631195     -0.4804083947
C     1.7471738915     2.0157676767     -1.6475519985
C     0.4757473055     2.6608847875     -1.7292211493
C     2.5497887442     -0.1342365348     -2.5789306547
C     2.034630007     -1.328454668     -3.1773692591
C     1.8569691096     1.065976757     -2.7530391509
C     -0.0532919055     -2.338232537     -3.1464401166
C     0.7953637418     -1.3262144869     -3.8127368892
C     -2.0369850748     -2.0721901968     -1.8091470102
C     -2.9529438586     -1.107554164     -1.2927684867
C     -1.338722554     -1.8248407025     -3.0142126808
C     -3.2268536025     1.3028890626     -1.1055636456
C     -2.2913140422     2.3130675113     -1.5848988921
C     -3.0673655225     0.1550948717     -1.9151419891
C     -0.2430068823     2.061196028     -2.856198352
C     0.5987613965     1.0824391528     -3.4903524665
C     0.038435538     -0.1337541651     -3.9646039562
C     -1.3471322463     -0.4549092893     -3.5912395605
C     -1.6238149069     1.8376392733     -2.7428132235
C     -2.1621389369     0.5021594326     -3.0366237698


