58

 C     1.4981570456     -0.0440456721     3.8692608755
C     0.6795653174     -1.2111972212     3.7220221697
C     1.1898034221     -2.0342010852     2.6735137171
C     2.4501913628     -0.0439275772     2.8512376548
C     2.2526854999     -1.2440816641     2.0400220642
C     2.4268333288     1.240904013     2.1940230145
C     0.6575738556     1.1210326446     3.6576280522
C     1.3037282161     1.9844421651     2.7201650896
C     -0.6818937705     -0.7782641365     3.6345049217
C     -0.6658779677     0.6887107636     3.4034728183
C     -1.549649953     -1.5670125317     2.9379283018
C     0.3042406867     -2.8251404057     1.9031947884
C     -1.0818265204     -2.7747893515     2.2939181988
C     0.6249139001     -3.0536591977     0.4789349428
C     2.3779332874     -1.1986632096     0.6435160626
C     1.6267781387     -2.1932534183     -0.1656253565
C     2.762304259     1.3341650675     0.8322964403
C     2.8448022382     0.0812607462     0.035228738
C     2.3678790474     2.5444950516     0.2026363927
C     0.536655856     2.7948303552     1.85461957
C     1.2710394316     3.3109861591     0.7470986808
C     -1.4188510245     1.2491360323     2.306666056
C     -0.8808832769     2.4406980184     1.657344005
C     -2.547511456     -0.9586110937     2.0318347929
C     -2.346046908     0.3881265945     1.56932168
C     -2.0907642895     -3.1113363779     1.347741374
C     -2.9746479082     -1.942672364     1.1570239752
C     -0.4035308326     -3.6499553084     -0.3379280697
C     -1.7936760586     -3.6518526628     0.1318057953
C     -0.4720710834     -3.3371631538     -1.7126127252
C     1.564050754     -1.9785458377     -1.598070518
C     0.4456602456     -2.498201895     -2.338908978
C     2.814200494     0.2231185401     -1.3490943276
C     2.1881475879     -0.8195810822     -2.1752331668
C     2.337224229     2.6638930575     -1.2529424834
C     2.6277421906     1.5102586266     -2.0143309608
C     0.5899083232     3.88331963     -0.3688488158
C     1.2755669657     3.5184261149     -1.626263808
C     -1.4626214033     2.8136708939     0.4178392272
C     -0.7580071971     3.6522375496     -0.515656928
C     -2.6158428918     0.6275211884     0.150209448
C     -2.1950708399     1.8601887985     -0.3672648056
C     -3.1399270175     -1.7493473805     -0.2672385935
C     -2.6030357154     -2.9432000582     -0.8825410147
C     -1.8344012415     -2.8270647483     -2.0104099867
C     -2.868641966     -0.4726728385     -0.8129932528
C     -0.3220286142     -1.5715611418     -3.1898533399
C     -1.6943061391     -1.5962271438     -2.6981324016
C     -2.2296348571     -0.3905101293     -2.1561873198
C     1.622688663     -0.1761506376     -3.2865079536
C     1.8062295555     1.252101306     -3.1443114405
C     0.2450660339     -0.4074382773     -3.6101230806
C     0.2843746821     3.0672778913     -2.553809552
C     -0.9867007156     3.1485305227     -1.8838644263
C     -1.8165393676     2.0336829405     -1.7844046834
C     -1.6246903025     0.8603374672     -2.607765885
C     0.5480436396     1.9028788476     -3.3161102207
C     -0.4653089195     0.8540966255     -3.4379747725


