58

 C     1.5080472574     0.0261903281     4.3304166192
C     0.6919269765     -1.1655515762     4.3343948874
C     1.3126651539     -2.1663443452     3.5561293904
C     2.5479286312     -0.1861695194     3.3563858272
C     2.4735329849     -1.529228085     2.9181140318
C     2.4442461129     0.8197265061     2.3202332441
C     0.6679678034     1.0331429882     3.7770113991
C     1.2770892038     1.6147728402     2.609451607
C     -0.6908882262     -0.8181928098     4.0442611167
C     -0.6952123081     0.6035379022     3.6562360801
C     -1.461378937     -1.6984169355     3.2851296218
C     0.581226441     -2.8315096317     2.5209675788
C     -0.8089158345     -2.7216591251     2.4579615921
C     2.4595107966     -1.8392528853     1.5340975421
C     1.3252982676     -2.690210691     1.2668079415
C     2.7399000688     0.5337547072     0.9588900898
C     2.7964847453     -0.8523897556     0.5502623115
C     2.3293202512     1.5224102961     -0.0155087285
C     0.4974966251     2.1799283871     1.5659750578
C     1.1915976123     2.4038615993     0.309864948
C     -1.5063796594     1.0977650227     2.5839472192
C     -0.9385260811     2.0270699834     1.5876125816
C     -2.520057601     -1.1458174525     2.49685862
C     -2.5468559934     0.2283544731     2.1323992377
C     -1.4684543606     -2.6989314549     1.1536747045
C     -2.6079506475     -1.8674738105     1.2664434935
C     0.7017336786     -2.6814192981     -0.0114974428
C     -0.7490077234     -2.6920255516     -0.0874265987
C     2.5235334945     -1.1715841819     -0.8203531588
C     1.468458066     -2.1374639545     -1.118625703
C     2.5995682815     1.2401568693     -1.3603626569
C     2.7749871002     -0.1403233414     -1.7673248041
C     1.9342598579     1.9509921576     -2.4581632035
C     0.4718726888     2.9910700989     -0.7316541904
C     0.8769901435     2.8491007152     -2.1407310326
C     -1.659301077     2.3282928009     0.3602167464
C     -0.969954865     3.0241907534     -0.6676261693
C     -3.0195469734     0.3226789831     0.7557839114
C     -3.0123315915     -1.0009596123     0.208476394
C     -2.7397770783     1.4241738525     -0.0700242854
C     -1.4018024794     -2.1278069506     -1.2810671798
C     -2.5711080332     -1.2291236275     -1.1094706945
C     0.8193707914     -2.0455539521     -2.3757761032
C     -0.62587501     -1.9567367691     -2.4328074981
C     2.288771179     -0.2403941028     -3.0994667993
C     1.7767714719     1.0704078929     -3.5440061854
C     1.3266771884     -1.18725736     -3.397040967
C     -0.9724104079     -0.9693808397     -3.4917963863
C     0.5049658134     0.9002883184     -4.1991575667
C     0.2095432651     -0.5120750288     -4.0864981354
C     -0.2687769397     2.8737773859     -2.9488004351
C     -1.4276335033     2.9873712148     -2.0384278204
C     -0.5288980412     1.8334416731     -3.9128096902
C     -2.9300124308     1.1864914289     -1.467719305
C     -2.7589198739     -0.142857624     -1.9944341311
C     -2.0214103807     -0.0366802139     -3.2536276756
C     -2.3851678059     2.087821324     -2.44267386
C     -1.8351881187     1.3220199833     -3.5731253574


