58

 C     1.6134988528     -0.0551277384     3.8753568112
C     0.7791405969     -1.2252516177     3.6825650468
C     1.3846812213     -2.0879107668     2.7275402385
C     2.6267054797     -0.1075973574     2.9102837312
C     2.5712211889     -1.3777222766     2.2316471611
C     2.5710319653     1.0977384762     2.0922724006
C     0.7980847411     1.0818675146     3.5676661453
C     1.4285854672     1.8708351663     2.551563812
C     -0.565069862     -0.7960755569     3.4725334192
C     -0.5674421216     0.6933944543     3.3962515022
C     -1.3751616309     -1.5010366096     2.5872969382
C     0.5628576048     -2.8178145122     1.7953674229
C     -0.8494599423     -2.5620571782     1.7858385594
C     1.1635547833     -3.1879040378     0.5729794372
C     2.9741769597     -1.5021241995     0.883796498
C     2.4500744868     -2.6495150231     0.186111525
C     2.8845194777     1.0353062354     0.7210488197
C     3.2394234874     -0.2649071425     0.1025471276
C     2.2651794567     2.0373782191     -0.0962698116
C     0.6216637661     2.6117193479     1.6587002901
C     1.1887457923     2.8543173752     0.376913966
C     -1.4060949137     1.3799557493     2.5008119373
C     -0.8464430866     2.5223147136     1.7645618982
C     -2.3909630868     -0.8020964183     1.8238167878
C     -2.5103289057     0.6198738588     1.8543754499
C     -1.6075052319     -2.5668141405     0.5443587411
C     -2.6007771023     -1.5193873727     0.608656027
C     0.3664618073     -3.3856963769     -0.6511275015
C     -1.0167657315     -2.9357268056     -0.6875808044
C     2.4993828668     -2.7125663148     -1.2286363961
C     1.201570745     -3.1859346736     -1.7500147759
C     3.1494345417     -0.3463981486     -1.3051355207
C     2.8483428509     -1.5903448099     -1.9515808419
C     2.0421623011     1.8380790928     -1.5108464922
C     2.4566541444     0.6724700528     -2.0949079218
C     0.3534630386     3.2130506665     -0.7528649753
C     0.807030809     2.4968737445     -1.911088406
C     -1.614493969     3.0761360137     0.7189307987
C     -0.9962320015     3.4813176397     -0.5579580737
C     -3.2413789904     1.2149257642     0.8064339246
C     -2.9228762655     2.5675904084     0.4004463295
C     -3.0941853809     -0.8581923992     -0.5662760738
C     -3.5681275654     0.4772385603     -0.4031567446
C     -1.4623885233     -2.2366184403     -1.8655650689
C     -2.4917472606     -1.2271288442     -1.8064780504
C     0.810160488     -2.3248302133     -2.8322987064
C     1.8546963313     -1.3633015184     -3.0184266745
C     1.5696338122     0.0047489645     -3.0586414535
C     -0.513223149     -1.8657266735     -2.8902591336
C     -0.1302312815     1.8454561287     -2.7651152302
C     -2.132944471     -0.1863867898     -2.7527865886
C     0.2127105847     0.4939429581     -3.2469222202
C     -0.803955314     -0.4953215324     -3.2569718949
C     -1.9087882868     3.1255426633     -1.5981337887
C     -3.1596066407     2.6985356454     -0.9858480718
C     -3.4622569839     1.4138283518     -1.4975263759
C     -1.5170297741     2.1923628876     -2.5929373655
C     -2.5393721759     1.1207148453     -2.5653177835


