58

 C     1.2808920619     -0.013770301     4.0607945644
C     2.4475546396     -0.2031372195     3.276903319
C     2.4047520067     -1.5416918731     2.7739936053
C     0.4471522907     -1.2377134609     4.0138023502
C     1.1562060663     -2.1663210977     3.1991129248
C     -0.8657199335     -0.8296533881     3.6282180841
C     0.4934533818     1.0982401773     3.8242657604
C     -0.8787864401     0.6151916293     3.6720941459
C     0.769383906     1.9881365959     2.7195158569
C     2.7789937547     0.6859932309     2.1978360374
C     1.9249092543     1.7923266997     1.8656992101
C     2.8348085682     -1.5571012834     1.4169675606
C     3.212455585     -0.1839930942     1.1152688123
C     2.1574945584     -2.3371099642     0.431121692
C     0.4777200568     -2.9225102962     2.254694785
C     1.0474898383     -3.1313871186     0.9226931327
C     -1.5922963265     -1.5108201701     2.5672123409
C     -0.9553870181     -2.6906034646     2.0486807614
C     -2.4471437997     -0.74090035     1.6522651806
C     -1.484014407     1.3255831239     2.6574221652
C     -0.4824044559     2.2602538052     2.0982394599
C     -2.4237473511     0.7132510256     1.7693797472
C     -0.6105669911     2.7608449328     0.7789719916
C     1.8254797226     2.2258752437     0.4582911306
C     0.6027814103     2.8701029005     -0.0571966457
C     3.1612221479     0.2454765144     -0.1737051343
C     2.6364368366     1.5596118905     -0.4959869832
C     2.1353182253     -1.8762180665     -0.9689736593
C     2.7935911523     -0.6478606128     -1.2576381909
C     1.0114739273     -2.2344474123     -1.8601000692
C     -0.0182534498     -3.4186666183     0.0536739256
C     -1.2658839283     -3.1535453739     0.7487969824
C     -0.108010578     -2.9300263941     -1.2687371872
C     -2.78051731     -1.283514203     0.3180009902
C     -2.0971107296     -2.4516472401     -0.1233890071
C     -1.4417248076     -2.4424193343     -1.4473838494
C     -3.2205315552     -0.4097699381     -0.7244224802
C     -2.7738566194     1.5259237231     0.6714582883
C     -1.8790642229     2.5887276396     0.1868095014
C     -3.3561546962     0.9587992363     -0.4744147752
C     -2.0422003348     2.6988815933     -1.2529491882
C     -2.9623146496     1.7127942805     -1.6631962852
C     0.428774611     3.0131294777     -1.4499409296
C     -0.9139828863     2.9619644096     -2.0698827784
C     2.3362930733     1.558199733     -1.8973289307
C     2.4383914014     0.1758180841     -2.3788505602
C     1.3464108722     2.404337136     -2.3943877539
C     0.7191975285     -1.4379720469     -2.9824540166
C     1.5137907621     -0.2832750915     -3.3203357377
C     -1.7501417824     -1.4807570489     -2.4419336983
C     -2.744215057     -0.5211204732     -2.1287793349
C     -2.6749833458     0.8113595404     -2.7214406602
C     -0.6818499653     -1.1185929721     -3.3595253581
C     -0.8297427777     2.3088473546     -3.3170622362
C     0.5814272882     1.9695008827     -3.5353802664
C     0.6581965146     0.6627607388     -3.98353343
C     -1.6344223848     1.1476226789     -3.6206179652
C     -0.7070236184     0.1169916095     -4.0126372247


