58

 C     1.1332974684     -0.1487297262     3.8928967951
C     2.2464079068     -0.43037241     3.1622761666
C     2.1316487751     -1.7803692418     2.5749452357
C     0.258776839     -1.3622146761     3.8018555236
C     0.811774854     -2.2621847093     2.8123608288
C     -1.0140799326     -0.911889336     3.6622637891
C     0.3319826153     1.027134295     3.5940756186
C     -1.0094270024     0.5828668108     3.6390271036
C     0.7280462123     1.9455422731     2.5510199621
C     2.7226707361     0.467288097     2.1457471954
C     2.030667971     1.6987332511     1.8996609334
C     2.6695935824     -1.7202672536     1.2923738129
C     3.1304284012     -0.3476701508     1.0402797404
C     2.0862032044     -2.4820814253     0.2395590714
C     0.0149457285     -2.7007932694     1.6907974373
C     0.7306319197     -2.9962733368     0.4434662403
C     -1.8804117073     -1.3680536971     2.6222285916
C     -1.3870022876     -2.2570426168     1.6085459201
C     -1.9876423943     1.0002232114     2.7431785568
C     -2.6506788865     -0.2166571214     2.2355800607
C     -0.3453331323     2.5784792946     1.7644715874
C     -1.7140228319     2.0927214698     1.8477378076
C     0.0169849205     3.2492897074     0.5331590898
C     2.2649027048     2.265426892     0.6079581513
C     1.3181887486     3.162546042     0.0508926903
C     3.1625315298     0.1576644218     -0.2943951957
C     2.8123091144     1.5144502013     -0.4849842303
C     2.511643234     -2.0995572079     -1.0822880811
C     2.9385030587     -0.7680586684     -1.3529628424
C     1.7628663254     -2.5189991494     -2.2249898689
C     -0.0560354622     -3.2113207478     -0.7404667619
C     0.5264300534     -3.0737239724     -2.0547896807
C     -2.0448693241     -2.1697716407     0.2896306861
C     -1.3735621843     -2.7010313887     -0.8406700123
C     -3.3001039353     -0.1682162881     1.0171660026
C     -3.016754954     -1.1617185683     0.0227495538
C     -2.5745129192     2.177034816     0.6878024467
C     -3.412007073     1.0969862587     0.3632382937
C     -0.8640939809     3.2825951963     -0.6565966927
C     -2.1184619446     2.7404254012     -0.5876421132
C     1.3029393582     3.0098677617     -1.4049361311
C     2.15961554     1.9577119556     -1.741039111
C     -0.0381872049     3.06012284     -1.8537093658
C     2.3205923713     -0.325695     -2.6368135431
C     1.6608699202     -1.41141512     -3.1992787145
C     1.7786633548     1.0122100676     -2.7495172279
C     -0.4190140775     -2.3780411586     -2.9471022676
C     -1.56202357     -2.1233034567     -2.2090953466
C     0.2864035726     -1.3072331431     -3.6202120432
C     -3.1172381286     -0.497428837     -1.2951472031
C     -3.3837598505     0.8672186897     -1.0659974454
C     -2.6108825566     1.8878804493     -1.6845718613
C     -2.2734724057     -0.880915205     -2.3776869767
C     -0.4521735     2.1508027161     -2.8388935738
C     0.4701453343     1.1448638477     -3.3295548572
C     -0.3065205279     -0.0418712899     -3.672990155
C     -1.7630574319     1.5412936445     -2.7381248802
C     -1.6453361493     0.1515202208     -3.1524886901


