58

 C     1.2184215339     0.0710565177     4.117728307
C     2.3627566244     -0.2695946439     3.4943755114
C     2.2534461624     -1.7170622805     3.111627245
C     0.3156947557     -1.1383398439     4.1206716428
C     0.8635469975     -2.09165423     3.1883079692
C     -0.9559237358     -0.6975334413     4.0137983467
C     0.4341053165     1.2031895381     3.6831507324
C     -0.9102764338     0.8000308532     3.9659495601
C     0.7351458582     1.8440169485     2.4142880177
C     2.8223273148     0.4567984019     2.3180882475
C     1.9564826857     1.4395378037     1.6788700116
C     2.9411155559     -1.8646810036     1.9575874549
C     3.4546412661     -0.5213875676     1.5192208673
C     2.344301051     -2.4621242779     0.8181272324
C     0.1379062543     -2.4120608654     1.9741937536
C     0.9223214156     -2.6769950302     0.7609052491
C     -1.8059803928     -1.1318596254     2.9193772032
C     -1.2526360104     -1.8850292254     1.8220382564
C     -1.9386438173     1.2071643699     3.1740161652
C     -2.6284659915     -0.007374468     2.6228272799
C     -0.3849891053     2.3733948613     1.6329592147
C     -1.7226796629     2.0923622304     2.0994185013
C     -0.2267892549     2.657861844     0.2029163398
C     2.0189938544     1.5606373405     0.2158771944
C     0.9422505109     2.2525437451     -0.5283055066
C     3.4311470833     -0.4885240116     0.1436294002
C     2.9940620365     -1.8266840721     -0.3006204104
C     2.8719830015     0.6490270334     -0.5396028665
C     2.4909824232     -1.9811716401     -1.5456055394
C     0.2935406788     -2.6160391845     -0.572173762
C     1.1364667013     -2.5125371602     -1.7156706935
C     -1.8213966626     -1.6603842484     0.4832736496
C     -1.1167281897     -2.1693364547     -0.7069068349
C     -3.0620910593     0.2868481688     1.3567889124
C     -2.7316636338     1.7099007376     1.1307913693
C     -2.8043047272     -0.6060880981     0.2642352047
C     -1.4565767036     2.8768267844     -0.5612584948
C     -2.6731129744     2.1849291205     -0.1136867094
C     -1.5111488417     2.8450686035     -1.9380748979
C     0.8548014962     2.1209514747     -2.0163890785
C     -0.3878008869     2.4471893622     -2.7210332761
C     2.6530308806     0.4262844189     -1.93016298
C     2.6436302079     -0.8945143681     -2.4494034711
C     1.6764618793     1.1872155504     -2.6846230518
C     0.6617564799     -1.9677883     -2.9636027657
C     1.5946202595     -0.9788791425     -3.4282251214
C     1.1367666377     0.3198708398     -3.7432912847
C     -1.6054220908     -1.8177616516     -1.9843281335
C     -0.7140018557     -1.7382318806     -3.1445827272
C     -3.0944868553     -0.0641770226     -1.06186455
C     -3.1813235848     1.3820721657     -1.2124326594
C     -2.6851710859     2.0143806204     -2.3664113811
C     -2.6432969724     -0.7966757321     -2.1900852123
C     -0.8773287215     1.638911936     -3.7931652987
C     -0.2002396914     0.4606572966     -4.160701173
C     -1.1143599481     -0.652578702     -3.9421960641
C     -2.283389493     1.2724603592     -3.462562574
C     -2.3724785304     -0.1341208139     -3.428072322


