58

 C     1.5622730962     -0.2079403084     4.2843221678
C     0.772034334     -1.337347242     4.3495894609
C     1.2850084021     -2.3764405558     3.4738549151
C     2.5671904928     -0.4451604171     3.2583108691
C     2.3750602764     -1.7926565668     2.7258871237
C     2.4940796828     0.6150142725     2.3489105182
C     0.7351231114     0.9151026149     3.8564615224
C     1.3685237368     1.5132276502     2.7613948101
C     -0.583159314     -0.9968534131     3.9292176747
C     -0.619958959     0.4472475606     3.6436104705
C     0.1646256081     -2.8485515036     2.7346726356
C     -0.9933152885     -1.9238105037     2.9640799831
C     0.354647111     -3.3106515539     1.4574978055
C     2.4787697859     -2.0147819595     1.3138427825
C     1.6072234107     -3.0279017554     0.7815128991
C     2.7204845719     0.4472196289     0.9503028824
C     2.7728875092     -0.894271937     0.4044200779
C     2.3856688872     1.582781824     0.1071235576
C     0.6182758358     2.1680340047     1.7662421693
C     1.3195108551     2.5057162766     0.5394390433
C     -1.3461544577     0.8913040056     2.538972487
C     -0.8091406713     1.9965287475     1.731216566
C     -1.8057020888     -1.5133470305     1.8553328964
C     -2.1587883775     -0.0961777921     1.8015331534
C     -0.7053935318     -3.2017327739     0.4454464767
C     -1.7891820553     -2.264039946     0.6079339458
C     1.3352022926     -3.1186279607     -0.6057239383
C     -0.1002238409     -3.3256480692     -0.8066873594
C     2.5180966738     -1.0340056608     -1.0412896206
C     1.7558114855     -2.1667224703     -1.5205000031
C     2.5753138294     1.4349158807     -1.2837662737
C     2.4847236736     0.110942299     -1.8477873546
C     1.9615712855     2.3304736211     -2.2053119572
C     0.6003837622     3.2422597693     -0.4172930915
C     1.0173565422     3.2408920036     -1.7822421494
C     -1.5370691046     2.4668550667     0.5776136284
C     -0.8625906718     3.2058008163     -0.4201044417
C     -2.8539067979     0.3421735944     0.6874116677
C     -2.7153276574     1.7215001368     0.1731369401
C     -2.3945522626     -1.7115472007     -0.6001530956
C     -3.1482670646     -0.5154687596     -0.4304334856
C     -0.5130046612     -2.5880273907     -1.937037289
C     0.6546791363     -1.949114399     -2.4809313768
C     -1.7632886594     -1.9047642793     -1.9255427265
C     1.6131468301     0.2166558502     -3.0493424397
C     1.3723677978     1.5609243958     -3.3162243294
C     0.5551494292     -0.7651295268     -3.2345435547
C     -0.1680232517     3.1345059432     -2.6466762601
C     -1.313394761     3.1824273843     -1.8209939243
C     0.0478920359     2.0665397723     -3.5806748802
C     -3.1827011575     1.7522773646     -1.1342910363
C     -3.4442688377     0.3444213161     -1.5296414157
C     -2.4438264487     2.3915889295     -2.1835857228
C     -1.9098244498     -0.9013174976     -2.9328356449
C     -0.7540927072     -0.3064582322     -3.5751315461
C     -1.0126607064     1.1363679226     -3.7707334746
C     -2.8633014374     0.1509407846     -2.7607293021
C     -2.28196226     1.4238572789     -3.2290834058


