58

 C     1.477789119     0.110760067     4.3615762868
C     0.6472525021     -1.0297756334     4.019721571
C     1.3825991459     -1.8878769946     3.218783166
C     2.6286269061     0.0672625514     3.4627071073
C     2.6381029541     -1.1723987597     2.8175975071
C     2.6768893586     1.2626516261     2.6476399663
C     0.7562985243     1.242640242     3.9677240785
C     1.5677223465     2.0917791336     3.1190629906
C     -0.6272418406     -0.5496564731     3.4622552112
C     -0.5667946333     0.8801365325     3.4696043427
C     -1.2747786627     -1.2344329604     2.3934591111
C     0.8193680035     -2.4736132691     2.066464472
C     -0.5655129461     -2.3355619711     1.7420609857
C     2.7278276463     -1.2801655733     1.4126147547
C     1.7432871275     -2.2701659206     0.9826283134
C     2.9191900249     1.1786081911     1.2310788368
C     2.9334789134     -0.1364505421     0.5666786211
C     2.4373496131     2.2837106063     0.4504418029
C     0.9145960574     2.9514383948     2.2562557866
C     1.5274050071     3.2071364698     1.010700523
C     -1.2097962471     1.65630254     2.4354699711
C     -0.5295601991     2.8122272996     1.9665692699
C     -2.2246403284     -0.4860341514     1.5835062592
C     -2.158493276     0.9745417007     1.5502112833
C     -2.8042670838     -1.168883542     0.4865555683
C     -0.9539746573     -2.7854705903     0.4354989801
C     -2.2564327117     -2.3979693561     -0.0071935694
C     1.3644479177     -2.4243348137     -0.3486013937
C     0.056176529     -3.0093476602     -0.5958450739
C     2.5431963382     -0.2767314569     -0.8248901992
C     1.9937453032     -1.5346868056     -1.3187075598
C     2.0587950311     2.1372061168     -0.9353607439
C     2.2078832114     0.9299735407     -1.6159088571
C     0.5202212562     3.5483011254     0.0148975481
C     -0.7536515477     3.2832664     0.6103744724
C     0.8571353764     2.9734993514     -1.2042331284
C     -2.5227580195     1.6172534888     0.3285602153
C     -1.7430732152     2.7028366833     -0.1776548874
C     -3.332029653     -0.4627195205     -0.6899535127
C     -3.0225379462     0.8866054798     -0.8152285314
C     -2.6448951628     -2.5395717877     -1.3878752323
C     -3.2485479794     -1.2913468041     -1.8297732665
C     -0.3521693455     -3.1258031254     -1.9666667643
C     -1.7396049187     -2.9438109333     -2.345362389
C     1.5000176776     -1.615544466     -2.6556308423
C     0.4238473814     -2.4978617769     -2.960427155
C     1.457411048     0.7999004603     -2.8451299809
C     1.3196228818     -0.4394892696     -3.4613842842
C     -0.1686430869     2.4989305006     -2.0946058682
C     -1.507333097     2.4268793306     -1.595059345
C     -2.3874300866     1.3701604271     -2.0221155376
C     0.2090769319     1.5316341558     -3.0509324815
C     -2.6129742862     -0.8719197913     -3.047447586
C     -1.8129135086     -2.0018296737     -3.4808961231
C     -0.5064066266     -1.7909453272     -3.900447745
C     0.0130550772     -0.510305072     -4.1050898045
C     -2.0594478818     0.4766220221     -3.1076941472
C     -0.7365062328     0.6424395935     -3.6805830227


