58

 C     1.2776746267     0.066575106     4.0538375736
C     2.4843878461     -0.0770214875     3.3480631561
C     2.5352739507     -1.4284284587     2.8338926638
C     0.4505123408     -1.1377758586     3.7647527718
C     1.2063112371     -2.0094052419     2.9621210278
C     -0.8401925363     -0.7119958746     3.3527118863
C     0.4896215225     1.1714533244     3.8003873784
C     -0.8902453934     0.7136248675     3.5396882112
C     0.8273272009     2.1439249525     2.8031222936
C     2.8502753437     0.8344311918     2.2967948879
C     1.9839051377     1.9479684531     1.9658194376
C     3.175078805     -1.4038316326     1.5851909019
C     3.4022540096     0.0214443173     1.2284342643
C     2.7495460742     -2.2898290082     0.6041322284
C     0.5942375903     -2.660179835     1.825056017
C     1.5013073217     -3.0215361091     0.7734843965
C     -1.4754599725     -1.2763129628     2.1933338514
C     -0.7875741414     -2.3346886842     1.4585338911
C     -2.4352877765     -0.42155045     1.4954121124
C     -1.4630219596     1.5448362285     2.5916207669
C     -0.4330017564     2.5255819399     2.1968992101
C     -2.3698254612     1.0255767745     1.6192930705
C     -0.485198608     3.0293989036     0.9269080696
C     1.8727696435     2.3411853993     0.5425292723
C     0.6866035966     2.9818112666     0.0826822126
C     3.2952177556     0.3959741408     -0.0969732551
C     2.5717426706     1.5905780803     -0.4558491486
C     2.8694418212     -1.9377456832     -0.8217302822
C     3.1012680382     -0.5858646853     -1.1635416045
C     1.0252815873     -3.2904216266     -0.5328371347
C     1.8983062202     -2.6638510122     -1.5288974651
C     -1.2421495695     -2.634938715     0.0846567744
C     -0.2968985749     -3.093962787     -0.9057304847
C     -3.0180509682     -0.9351522621     0.3009981329
C     -2.3756084969     -1.9950842378     -0.4255172307
C     -3.6513007492     -0.0941146371     -0.6353446729
C     -2.6352899707     1.8609225856     0.4472585005
C     -1.6576949998     2.8347305676     0.0986775707
C     -3.3995398621     1.3039549512     -0.6466203826
C     0.2163371149     2.9041752347     -1.2789417237
C     -1.2332853524     2.9834953657     -1.2742800363
C     2.0368987228     1.396088585     -1.7779326121
C     2.3176112742     0.0240920321     -2.1866942495
C     0.8787685872     2.070403934     -2.2314367157
C     1.0871493967     -2.0821212825     -2.5205575285
C     -0.2833420786     -2.4747916758     -2.2412597803
C     1.3287302993     -0.7188236173     -2.9370936945
C     -2.5403387327     -1.6867604554     -1.8728376428
C     -3.4493348705     -0.6296486394     -1.9878737719
C     -1.3715973924     -1.7463469963     -2.7418742976
C     -3.1558308347     1.6940469745     -2.0017803229
C     -1.9868846546     2.4328115923     -2.3281444963
C     -3.1485887755     0.4758108122     -2.8288510751
C     0.063248764     1.4227073356     -3.2442933487
C     0.2390085292     -0.0147864726     -3.4903533119
C     -1.0822907351     -0.5969506135     -3.5804560631
C     -1.292382462     1.7299291074     -3.3916958778
C     -2.0158803734     0.4863869784     -3.6468943122


