58

 C     1.4772286664     -0.1549399529     3.9527480561
C     0.6423812714     -1.2423565169     3.8266172154
C     1.0583553852     -2.0364352502     2.6585083725
C     2.448236813     -0.1914970235     2.8712579331
C     2.2162462441     -1.348443625     2.0612623376
C     2.4434007746     1.0447543561     2.2281073018
C     0.6552016579     1.029094636     3.7447039842
C     1.2212328186     1.7775677047     2.727020344
C     -0.7441320493     -0.7961103773     3.9030359816
C     -0.7394522129     0.6316164565     3.657504521
C     -1.7004247666     -1.6032884236     3.3286580924
C     0.0966681178     -2.6777164372     1.8651363948
C     -1.2852533437     -2.6708576791     2.3563348849
C     0.3653586459     -2.8112110985     0.4193349733
C     2.3803759227     -1.2893962302     0.6603683842
C     1.5595431892     -2.1949233119     -0.1439009494
C     2.8024437973     1.1343254089     0.874898205
C     2.8790737217     -0.0455586203     0.0536816258
C     2.4120618243     2.3808002022     0.2630610417
C     0.4005350324     2.4191774859     1.7341113366
C     1.096262757     2.9320890925     0.64353027
C     -1.5825387703     1.1395435957     2.6053169732
C     -1.0040424269     2.01423178     1.5701199011
C     -2.8591567413     -0.9954271023     2.7836767894
C     -2.7027233954     0.3357052884     2.2455095733
C     -2.3577219986     -2.8431155595     1.4808486499
C     -3.4060546491     -1.8697766738     1.7806828296
C     -0.7772469968     -3.0100650404     -0.4628675897
C     -2.0935573286     -2.8295537152     0.0621601166
C     -0.661495695     -2.6771815508     -1.8327437977
C     1.6632865654     -2.0472270926     -1.5574954512
C     0.6054592131     -2.4314838281     -2.3903047044
C     2.8673663876     0.1423361528     -1.4120838954
C     2.3242711422     -0.88375226     -2.1974425496
C     2.610506623     2.611880713     -1.0726283655
C     2.8516576589     1.5031861614     -1.9744246471
C     0.4465230589     3.3220631066     -0.57658778
C     1.4617271513     3.3731188533     -1.5888735481
C     -1.5386989159     2.0374624097     0.2234170068
C     -0.840522858     2.7503838816     -0.8510135737
C     -3.1295723558     0.2615328914     0.8567183852
C     -3.5284126854     -1.1262197279     0.6125438086
C     -2.9204227799     -1.8082947668     -0.5108344207
C     -2.5206983725     1.0062677688     -0.1537126268
C     -1.5694553102     -1.7137096185     -2.4680866643
C     -2.5031919562     -1.0659122809     -1.6287289733
C     -2.4555740824     0.4134562582     -1.5175505114
C     0.4946119284     -1.4621713943     -3.4772937825
C     1.5879033519     -0.5814752869     -3.4283935527
C     -0.8443736673     -0.9814908109     -3.4671827767
C     2.1314609426     1.7816561666     -3.1626604203
C     1.2081367794     2.9169895471     -2.8655574192
C     1.3773206678     0.7759656409     -3.8203539921
C     -1.0922612581     2.3731844502     -2.2273502057
C     -1.7874651725     1.1071753539     -2.5095317237
C     -1.062628097     0.4180533735     -3.5871568041
C     -0.093381577     2.5177475491     -3.219558894
C     0.0156213925     1.2382249805     -3.9465556706


