58

 C     1.2504442816     -0.0003853652     3.5427068265
C     2.4486977855     -0.3117725302     2.9821309324
C     2.4113283906     -1.7287383881     2.5941837974
C     0.3788465714     -1.2126053744     3.5317635421
C     1.0436572638     -2.2060497259     2.786247516
C     -0.9238651044     -0.7875331952     3.2777627078
C     0.4624203327     1.1323377642     3.1610162122
C     -0.9039013501     0.687573924     3.2623554095
C     0.8704421625     1.9797738153     2.0948727727
C     2.9199791507     0.4745247904     1.8696260297
C     2.1757045022     1.6585447814     1.4597101663
C     3.0226962591     -1.8114081523     1.3561561478
C     3.4259586045     -0.4549566272     0.9056561897
C     2.4902553199     -2.720628195     0.4000681414
C     0.3291964504     -2.8445981116     1.6964437948
C     1.1189737252     -3.2381368272     0.5791483637
C     -1.7566866195     -1.483487942     2.3321032552
C     -1.0990174649     -2.4924893759     1.4830500433
C     -2.8714037241     -0.7422509827     1.8351685221
C     -1.8990956655     1.3890713748     2.6283968688
C     -3.0053169644     0.6596604816     2.1180559176
C     -0.193493252     2.664570514     1.3199442763
C     -1.5507101757     2.4490341023     1.6857418444
C     0.0768440607     3.0945879437     -0.0659486273
C     2.3895739502     2.0722883141     0.1339388772
C     1.3942092801     2.8509534541     -0.5996383422
C     3.4538100761     -0.1239829049     -0.4814516365
C     3.1043049209     1.2278235464     -0.8152317083
C     2.6930616545     -2.4545456466     -0.9542719089
C     3.1218479381     -1.1469478392     -1.4328983348
C     0.5555065883     -3.3110178099     -0.7500840944
C     1.5240955851     -2.8473804031     -1.6953227579
C     -1.6224991129     -2.635942209     0.166796829
C     -0.7657002034     -2.9456040513     -0.9531656617
C     -3.3573109339     -0.9149249042     0.478282938
C     -2.6997552795     -1.8108449437     -0.3360866616
C     -3.480189303     1.349871894     0.9561629591
C     -2.6254040995     2.4803735119     0.7047823511
C     -3.7611684044     0.3968004407     -0.0659386584
C     -0.9879600438     3.1730479192     -1.0104004698
C     -2.3515967817     2.8160427142     -0.6257450946
C     -0.7921993964     2.693058203     -2.3793519232
C     1.5712685092     2.5584251809     -1.9631169261
C     2.5690402131     1.5136357364     -2.0909777661
C     0.4631343124     2.2534616071     -2.7935142958
C     2.3008786561     -0.8414636433     -2.5738533803
C     1.217265698     -1.8303315527     -2.6218973948
C     2.0181128316     0.487779843     -2.8956091309
C     0.6612891127     0.898571605     -3.2989031705
C     -1.1312842704     -2.0897079617     -2.0711963648
C     -2.3825478558     -1.4554852377     -1.728024383
C     -0.1438871839     -1.4188166278     -2.8471235229
C     -0.4138678694     -0.0268177957     -3.267532125
C     -3.4608730931     0.7329882149     -1.3909298023
C     -2.9119319161     2.0168334507     -1.6645386371
C     -1.9094562179     1.882109294     -2.7019249902
C     -2.7235050196     -0.2210209725     -2.2409331705
C     -1.7382168418     0.5161308946     -3.0266622822


