58

 C     1.0688427562     0.2736150671     4.0945706362
C     2.244160363     0.086796904     3.3869163734
C     2.2884580844     -1.320407047     2.9719235429
C     0.2164164807     -0.955005886     3.8841405299
C     0.9502099477     -1.8461667289     3.0673046001
C     -1.0618910206     -0.5296047136     3.531146032
C     0.2857018431     1.3799427358     3.8423749315
C     -1.1009711969     0.9168931276     3.7495350499
C     0.5243634702     2.1987208741     2.6850822568
C     2.5407573379     0.8674167197     2.2263317047
C     1.6077596768     1.8840225497     1.7802590313
C     2.992199867     -1.4085818561     1.7821052542
C     3.1357245558     -0.0458176999     1.2618091165
C     2.6210834895     -2.4350150742     0.896442974
C     0.3337851489     -2.4451932297     1.8768524636
C     1.229236425     -2.9130810042     0.9103904506
C     -1.734303913     -1.0864794063     2.3408838355
C     -1.0229248784     -2.0104794919     1.4511546089
C     -2.766215411     -0.3008247563     1.8084092984
C     -1.7743569359     1.7261230672     2.8700957446
C     -0.7691933876     2.5445261382     2.1498012604
C     -2.8343595692     1.1486517788     2.1371221668
C     -0.9691141733     2.85436452     0.7967792257
C     1.4041762087     2.0819392164     0.3406396624
C     0.1472494149     2.6515014986     -0.1507456692
C     3.0711588546     0.1923575446     -0.1197535779
C     2.2616941329     1.3351351626     -0.5977204696
C     2.9737402156     -2.2675543748     -0.4302273499
C     3.2237610197     -0.9710766782     -0.9752179535
C     0.8260307981     -3.1043554298     -0.4764089341
C     1.9665594427     -2.8900510315     -1.287513345
C     -1.4056739818     -2.0916733418     0.0418765926
C     -0.463867882     -2.670723241     -0.9332813543
C     -3.2144557777     -0.4442357639     0.4474795229
C     -2.5005665978     -1.2540897827     -0.4768583917
C     -3.2657310394     1.8242078048     1.0273475625
C     -2.3476451853     2.7381442309     0.3261485331
C     -3.7211505834     0.8484721142     0.0426249744
C     -2.5945735687     2.5656853723     -1.0323565362
C     -3.4474022742     1.3489570099     -1.2030396203
C     -0.177121964     2.564744865     -1.5708237749
C     -1.5595844794     2.461760284     -1.9736357442
C     1.9643380465     1.3547548085     -1.9746728364
C     0.7637205858     1.9855361183     -2.4813015259
C     2.7133657217     -0.969427578     -2.3219060482
C     1.8984702965     -2.2028527595     -2.5044053143
C     2.245982131     0.2178996901     -2.8513692361
C     -0.5420940287     -2.3228295621     -2.31870207
C     0.6495918581     -2.1150715844     -3.1209172568
C     -2.4872412196     -0.8100058257     -1.8928425891
C     -2.878883872     0.545602587     -2.2008501944
C     -1.9350887079     1.4027130221     -2.9215236744
C     -1.5375802014     -1.3654486383     -2.7917277184
C     0.349630883     1.322438689     -3.6841033589
C     1.1967251592     0.1766503493     -3.845797524
C     0.3987340212     -0.9834977027     -3.9734073514
C     -1.0079255312     0.853543617     -3.7641573986
C     -0.973710846     -0.5935672781     -3.8522811281


