58

 C     1.1541011015     -0.1691103443     3.8240921786
C     2.2733717979     -0.4414186951     3.1042845075
C     2.1356355584     -1.7656674036     2.4773716844
C     0.258843224     -1.3660573568     3.7463808859
C     0.7668661571     -2.2281765989     2.7251734147
C     -1.0234426233     -0.8905731569     3.6707612339
C     0.3635036121     1.0248376026     3.5668329439
C     -0.9770811848     0.5987244544     3.635378338
C     0.7653854928     1.9564943517     2.5338018383
C     2.7720922303     0.489608112     2.1246180445
C     2.0915222818     1.7387189471     1.9010114843
C     2.6449259491     -1.6583678797     1.2101903409
C     3.1982671296     -0.2920831934     1.0166698581
C     1.9973813516     -2.3378737394     0.1077707097
C     -0.0616873177     -2.6212547788     1.6356629663
C     0.6153338476     -2.859613666     0.3293848859
C     -1.9278625443     -1.3266496536     2.6749788523
C     -1.4771721848     -2.2118785086     1.6392043258
C     -1.9783573065     1.0423817039     2.7606822374
C     -2.7064373331     -0.1513192679     2.3069827912
C     -0.3011222426     2.5814292437     1.7507748615
C     -1.6859164023     2.1048602533     1.8461286837
C     0.0621421081     3.2130436424     0.5060772137
C     2.3500137454     2.328841051     0.6326344507
C     1.3723953388     3.1686715223     0.04775945
C     3.3219220293     0.2385043938     -0.2881306367
C     2.9971126865     1.6078870724     -0.4596268316
C     2.4278009511     -1.9750544867     -1.1710361578
C     3.1259325918     -0.672847596     -1.3930073389
C     1.6056540102     -2.2410330559     -2.3308434603
C     -0.1691790631     -3.0827747029     -0.8038571203
C     0.3364549827     -2.807226158     -2.1453433007
C     -2.2230834305     -2.1856493782     0.3713850069
C     -1.6074157508     -2.7567090368     -0.7934563637
C     -3.3899694414     -0.1142623559     1.1172988596
C     -3.2162969846     -1.1876089566     0.1412472265
C     -2.5395767151     2.171371274     0.6833489843
C     -3.4240088587     1.1204420463     0.4112413381
C     -0.7801756965     3.1122395972     -0.7063675065
C     -2.0269025435     2.586005891     -0.6274794175
C     1.3863681599     2.973281006     -1.409970937
C     2.4034434525     2.0553319708     -1.7264369291
C     0.0714911317     2.8265231166     -1.8684230315
C     2.6834119321     -0.1865374623     -2.6183737625
C     1.7369062009     -1.1300665477     -3.2096848136
C     2.1531571059     1.1385584137     -2.7561405056
C     -0.2697029603     1.7783422698     -2.8070342432
C     0.613855881     -0.4082113555     -3.6646765531
C     0.8148964248     1.0128728485     -3.3184600975
C     -0.7411416109     -2.2670318408     -2.8966583524
C     -1.9452864646     -2.3027176748     -2.0820168294
C     -0.6560472625     -0.9999850693     -3.523849105
C     -3.3721302543     -0.5900150178     -1.1801199208
C     -3.4158892959     0.8187465668     -1.0204351469
C     -2.5154911015     1.6702341526     -1.6731706563
C     -1.619646236     1.1564509607     -2.6906797608
C     -2.6483235225     -1.0857866737     -2.2678844376
C     -1.8008421742     -0.2008409029     -3.0659663603


