58

 C     1.416419827     0.0583050926     3.7549757173
C     2.6335294134     -0.1359886333     3.0823743023
C     2.6619052306     -1.4595011307     2.5276265703
C     0.5859720756     -1.1163455741     3.4560417255
C     1.3360999926     -2.0364818525     2.6848519
C     -0.668143929     -0.6704774155     3.0075754757
C     0.650095035     1.2220333065     3.5329129318
C     -0.6919308241     0.794848916     3.1233742081
C     1.24199863     2.310058771     2.8460208106
C     3.0420162851     0.8128618714     2.0555372252
C     2.4110575907     2.0378783291     1.9909469402
C     3.1458768858     -1.3437749905     1.2024757825
C     3.2961875795     0.0540644493     0.8284835228
C     2.7100137217     -2.2503662017     0.2514053101
C     0.6969390086     -2.7387680935     1.6130156527
C     1.5694597927     -3.1299483532     0.5337630435
C     -1.3593483906     -1.3375284396     1.9501040452
C     -0.701223595     -2.4583654155     1.2811604956
C     -2.4319900209     -0.5884794272     1.3020846192
C     -1.5020849526     1.5714567248     2.2738059229
C     -2.4877300787     0.8815069644     1.4332545771
C     0.3910115554     3.1509299905     2.1093272799
C     -0.9657595924     2.8505126257     1.8469539809
C     2.1478462102     2.6292214316     0.6775190763
C     1.0200897114     3.4631755182     0.8269772465
C     2.8734307609     0.5051021423     -0.4570566647
C     2.3012725413     1.8567225455     -0.5368315381
C     2.6398010578     -1.8724253864     -1.132817379
C     2.5369410937     -0.4929635714     -1.4936479586
C     1.0739529775     -3.5757571925     -0.690399996
C     1.7948060166     -2.8467492689     -1.7447877186
C     -1.2150043369     -2.8997803046     -0.0308079122
C     -0.2992021355     -3.4882426727     -1.0196511721
C     -3.0355254262     -1.1926617241     0.1660170266
C     -2.3598333536     -2.2764335617     -0.5412392601
C     -3.7011518578     -0.399298966     -0.8059513847
C     -3.0481449359     1.6364613466     0.356101601
C     -3.6441071212     0.9755549998     -0.7399778572
C     -1.2659056305     3.3238033294     0.4987518104
C     0.0213694889     3.5788059101     -0.1635746841
C     -2.2895137794     2.7647762338     -0.2057288151
C     1.3928719044     2.1466491478     -1.5983576071
C     0.2658760874     3.023041039     -1.4175920814
C     1.5668768672     -0.1613248013     -2.5539422364
C     0.9882095232     1.1322153017     -2.55136509
C     0.922090215     -2.560214591     -2.7730166521
C     -0.3863370537     -3.1017614137     -2.4113391038
C     0.7465627368     -1.1960848681     -3.1542647221
C     -2.4836338831     -1.9811540666     -1.9921008922
C     -3.1920824338     -0.8052613836     -2.1272764389
C     -1.3405737075     -2.172577092     -2.8169282448
C     -0.6783438509     -0.9931137021     -3.3811236682
C     -3.0313243307     1.46838236     -2.0015871951
C     -2.1484412754     2.5115134569     -1.6537099337
C     -0.8455471107     2.4993563118     -2.1961902331
C     -0.3880684623     1.371976907     -2.9541955872
C     -2.6464419657     0.3662017069     -2.7957535747
C     -1.2731857517     0.2844133944     -3.2722232188


