58

 C     1.306588854     -0.0973008846     3.7087723236
C     2.4371969954     -0.42281417     2.9690448765
C     2.3222361119     -1.8162030812     2.503297977
C     0.4635062982     -1.2688372076     3.75830585
C     1.0350032773     -2.266438216     2.8641489843
C     -0.8623662602     -0.8540709521     3.5724599776
C     0.498086957     1.0404977038     3.325802811
C     -0.8746466845     0.60027801     3.3175532867
C     0.9814222332     1.9614480835     2.3461284442
C     2.8968318973     0.3951606835     1.9092758697
C     2.2675928263     1.664934029     1.6638386189
C     2.7414229411     -1.8125658014     1.1497723048
C     3.2246863064     -0.4759229531     0.7920162124
C     2.0213405015     -2.5252302885     0.1877564367
C     0.1772995715     -2.9079088731     1.8571246803
C     0.7315246683     -3.081038828     0.534073615
C     -1.7540663222     -1.6801347436     2.858188562
C     -1.2201732711     -2.70754279     1.9548967176
C     -2.84217757     -1.0790072073     2.2022629324
C     -1.8243588363     1.1644046354     2.4106666665
C     -2.8591837849     0.3110924358     1.8874186638
C     -0.006512279     2.6488923384     1.5768135664
C     -1.3787270314     2.228566543     1.5762501629
C     0.2760739448     3.2157293208     0.2841377272
C     2.5046923575     2.1979148805     0.3848074942
C     1.5548481587     3.1038308111     -0.2673104764
C     3.2241293412     -0.0143712797     -0.5358285368
C     3.1211762548     1.4135805515     -0.6731666505
C     1.9729239149     -2.0578775244     -1.1729086355
C     2.6438305752     -0.8718615033     -1.6014936749
C     -0.0824863464     -3.0299265122     -0.6517243497
C     0.6985494531     -2.4329987798     -1.7159601341
C     -2.065154927     -2.7104115059     0.7587611572
C     -3.1115972284     -1.7962331848     0.974794771
C     -1.4912954962     -2.8208054419     -0.5735023367
C     -3.3364113605     0.465665631     0.5162036696
C     -3.5247152264     -0.8752748808     -0.0265801189
C     -1.9077763489     2.4317452389     0.2429200501
C     -0.8812732706     3.0360319039     -0.5648310443
C     -2.8475118987     1.5167576421     -0.3176967456
C     -0.733986064     2.7405932387     -1.9714686793
C     1.7228023766     3.0319591544     -1.6724418149
C     2.7193650479     1.9726433962     -1.9098770608
C     0.6287434784     2.7664816739     -2.5224121984
C     2.1401576643     -0.2475602415     -2.7839017512
C     2.2944525645     1.1796100482     -2.9691140671
C     1.0448311558     1.7221736687     -3.4484932571
C     0.0950537592     -1.6841572381     -2.7658695965
C     0.8520399869     -0.607073378     -3.3221970302
C     0.1819858401     0.6495775203     -3.7122107258
C     -2.1211821295     -2.1059707327     -1.637204182
C     -3.1740348728     -1.1380632442     -1.3493552703
C     -1.340299874     -1.5732705788     -2.7500013237
C     -2.7452226306     1.2646331675     -1.7468204194
C     -1.6625936706     1.8411156634     -2.5470209684
C     -1.1985679682     0.7927056247     -3.4646656135
C     -2.9831830729     -0.0355804745     -2.226672037
C     -1.9508908577     -0.361571091     -3.1867657008


