58

 C     1.483672695     -0.096794024     4.6380833394
C     0.747779915     -1.2439978448     4.5605586136
C     1.3215902015     -2.0884800452     3.5299045865
C     2.5247891539     -0.1432921906     3.5801309969
C     2.3983999798     -1.4049526366     2.8685545742
C     2.4559783112     1.0317626361     2.8445794091
C     0.6137433273     1.0246583442     4.307329678
C     1.3157062949     1.8590906042     3.4391755597
C     -0.610210798     -0.8835254289     4.0630167254
C     -0.7091288313     0.5304203894     3.9108738135
C     0.2457395899     -2.5963218574     2.7481140265
C     -0.9442214999     -1.7273509473     2.9857666928
C     0.526164691     -2.9447318315     1.462802655
C     2.4749783404     -1.4372709474     1.4251938645
C     1.7263922655     -2.4637966103     0.7882967156
C     2.6251193056     1.0510850912     1.4004682413
C     2.6595207401     -0.2090858162     0.6427537349
C     2.1811331467     2.2428355175     0.7463788691
C     0.5870106611     2.6444386919     2.5704083024
C     1.2232008131     3.146364669     1.4054792199
C     -1.3378933761     1.0689558979     2.7303547516
C     -0.8047436843     2.3047924015     2.2493044953
C     -1.6817703208     -1.2487593066     1.8537061662
C     -1.9310301983     0.1787919299     1.7229233474
C     -0.5318548363     -2.9288947787     0.4918269923
C     -1.6498281289     -2.064189649     0.6432414801
C     1.4261594924     -2.4438284529     -0.6026319076
C     0.1011248548     -3.0280837345     -0.7832254495
C     2.352933767     -0.2050438935     -0.7936930135
C     1.8024937625     -1.3856977341     -1.4670555898
C     1.9089954025     2.2328549285     -0.6467985465
C     2.0815589289     1.0672570255     -1.4485957947
C     0.2234700422     3.3546765911     0.4509585314
C     -1.0194515929     2.7362039093     0.9140117818
C     0.6887049483     3.0032437426     -0.8391056862
C     -2.2701382994     0.6889052042     0.3878629969
C     -1.7945781066     2.0068090368     -0.0103568315
C     -2.3110019704     -1.6247386644     -0.5662165096
C     -2.7019498196     -0.221521985     -0.6718617171
C     -0.6271924847     -2.8071958438     -1.9025338632
C     -1.9862688276     -2.3164922069     -1.7811236637
C     1.1362337735     -1.3280745417     -2.790889616
C     -0.001117924     -2.1939450814     -3.0654083048
C     1.4238243082     1.0977925052     -2.7038261634
C     1.1203796794     -0.0743204302     -3.4961150625
C     -0.2230172409     2.7086156313     -1.8408171553
C     -1.5737076525     2.2943163816     -1.4356772189
C     0.3609403543     2.0781565847     -2.9895649295
C     -2.9378622913     0.316401128     -1.9808566087
C     -2.311833947     1.5689263591     -2.367523069
C     -2.2926865546     -1.7716206266     -3.0451016838
C     -1.072624885     -1.7757559322     -3.894145826
C     -2.8924532743     -0.5136834555     -3.1700250233
C     0.0786578438     0.2734398303     -4.4185194021
C     -0.4326304381     1.5916460603     -4.0115059457
C     -1.8437800308     1.4276544804     -3.7613889994
C     -1.049530955     -0.556508593     -4.6029363024
C     -2.2738886315     0.1978595386     -4.2745602969


