58

 C     1.538840681     0.1184016931     4.2585759615
C     0.7699317612     -1.0605156006     4.0066628896
C     1.5651931696     -1.9467852224     3.2748774116
C     2.704511082     0.0648877788     3.3345607785
C     2.7975525034     -1.2302531644     2.8348471118
C     2.6376227896     1.165793632     2.4087588546
C     0.768464658     1.1963878612     3.8215096047
C     1.5173253888     1.9846731649     2.8649114329
C     -0.5347093188     -0.6591306762     3.4041475902
C     -0.5645482497     0.7662162538     3.4098180585
C     -1.1259747551     -1.3890134108     2.3296926429
C     1.0511371464     -2.652902547     2.1818870471
C     -0.360470241     -2.5442423158     1.8262525335
C     2.9443121521     -1.4723045674     1.452704222
C     2.0049176615     -2.5463484896     1.10924457
C     2.8012731891     0.971767926     0.9914875227
C     3.0365729362     -0.3903325841     0.5182219446
C     2.1522799382     1.9309092     0.0650008579
C     0.8080201296     2.7371970533     1.9785865112
C     1.2669687042     2.901670086     0.6143212225
C     -1.2719251853     1.4858714588     2.4151420051
C     -0.6456772358     2.6793394964     1.9208565213
C     -2.0471335171     -0.7050292707     1.4173578441
C     -2.1659475916     0.7482331969     1.5203612245
C     -2.4777029122     -1.3768526706     0.1771879957
C     -0.7056056751     -3.0714965859     0.5974249776
C     -1.8728091461     -2.6394602688     -0.1243459724
C     1.6454653624     -2.8534953128     -0.213324622
C     0.3344618135     -3.4354952237     -0.397182261
C     2.7064295106     -0.7090842984     -0.846278403
C     2.1467109604     -2.0071580864     -1.2359349497
C     1.9331496251     1.5811333358     -1.3492190413
C     2.2408530106     0.2430245137     -1.7649202849
C     0.9709707159     2.2815402084     -2.1241637893
C     0.1698394797     3.4406690455     -0.1369155498
C     -1.0357250846     3.233407115     0.6770001079
C     0.1055645291     3.2495014635     -1.5135375628
C     -2.7175356138     1.4741227031     0.4303306232
C     -2.2106351204     2.7775450789     0.0668642828
C     -3.0040548419     -0.6005811334     -0.953405005
C     -3.169790144     0.8089605934     -0.7882288274
C     -2.7224559942     -1.0279189817     -2.3099701247
C     -1.678272275     -3.0558964658     -1.4812082275
C     -0.2531802475     -3.4271033396     -1.6457849801
C     -2.0373157972     -2.2493558579     -2.527324667
C     1.4460590764     -1.860765022     -2.4774922754
C     1.45440192     -0.4550491099     -2.8071014068
C     0.2819803578     -2.6311030791     -2.7258890408
C     -0.8309250173     -1.9960356327     -3.3630363624
C     0.162213535     1.5813037318     -3.1516561934
C     -2.1461622377     -0.0859651447     -3.2525615854
C     0.3551734071     0.16998214     -3.4209877499
C     -0.8371244108     -0.6381204254     -3.673271838
C     -1.1922801701     3.1365156593     -2.1390365979
C     -2.3181535151     2.8827953589     -1.3604975358
C     -2.9865244421     1.6984661243     -1.8782143446
C     -1.1213419337     2.1392039938     -3.1957240909
C     -2.2842165215     1.2682746212     -3.0513810214


