58

 C     1.3418236933     0.0118696731     4.545045626
C     0.6296863013     -1.1200784611     4.0726551227
C     1.4966583412     -1.9490399234     3.3075999509
C     2.6356669449     0.0222897449     3.8162708728
C     2.7219574641     -1.1590691511     3.0478935705
C     2.7568403916     1.2529437788     3.150936189
C     0.6214733579     1.166106138     4.1314182824
C     1.5043549409     2.019155499     3.4340968125
C     -0.6238251915     -0.6884803945     3.4544252606
C     -0.6268169827     0.7616396215     3.4512857549
C     -1.1556760515     -1.3807346853     2.3621179633
C     1.039451444     -2.4822389897     2.1049078941
C     -0.3458826932     -2.4244259714     1.7388380449
C     2.8752332665     -1.1064697954     1.6321932599
C     1.9757971475     -2.0918409329     1.0547454457
C     2.95358327     1.3270301898     1.7480919578
C     3.0071551085     0.1399691779     0.9195345149
C     1.0902916782     2.6605632684     2.273257467
C     2.0905318226     2.3907443326     1.2551277258
C     -1.1215515333     1.4756927317     2.3282606402
C     -0.2939714862     2.5887392251     1.8378993245
C     -2.0685906719     -0.6546303137     1.4772600373
C     -1.9827027677     0.7830771151     1.3633276515
C     -2.6127413751     -1.3782805841     0.4158080485
C     -0.6640609324     -2.858351599     0.4310301754
C     -2.0174375453     -2.652962046     -0.0010858631
C     1.5876254955     -2.0728748042     -0.2756092208
C     0.3666798184     -2.8248546869     -0.6041761086
C     2.5522070223     0.2125286804     -0.4724677199
C     1.9994488871     -0.9656083454     -1.1244902457
C     1.8116981379     2.5653235384     -0.0942402255
C     2.2087632166     1.5158994276     -1.0437822894
C     -0.5175366872     3.0579533606     0.5597387431
C     0.597597348     3.3057246951     -0.3514961848
C     -2.3285956117     1.3854415363     0.0709609013
C     -1.6433717917     2.6094403933     -0.255049977
C     -3.1723043469     -0.7746762636     -0.7671145499
C     -2.8654716798     0.6017232118     -1.0379642073
C     -2.4227166882     -2.9259335809     -1.3008648717
C     -3.2007687722     -1.7710854618     -1.7873767057
C     -0.0247490943     -2.9045512636     -1.9419087347
C     -1.4230948995     -3.1580576112     -2.2955724995
C     1.3929242822     -0.8885010413     -2.4524499703
C     0.4916658418     -1.9389687267     -2.8909236642
C     1.6452692386     1.5789766753     -2.3438917548
C     1.2550453265     0.382967029     -3.0545332188
C     0.0811801936     3.3340293138     -1.6398218642
C     -1.3645239073     2.9372475143     -1.5879943091
C     0.6612934292     2.5877879087     -2.6479225096
C     -2.4957503415     0.9221152328     -2.4371794444
C     0.0126157044     0.6732766991     -3.7976026069
C     -1.6601014885     2.0676337577     -2.6543189758
C     -0.4163171423     1.9284612286     -3.390160311
C     -2.7534808731     -1.486410289     -3.0901229779
C     -1.7444235804     -2.4629184639     -3.4887825624
C     -0.5934500234     -1.6777117411     -3.8130654838
C     -2.2951553098     -0.1541166453     -3.3700579905
C     -0.9694495959     -0.3134789561     -3.9727001799


