58

 C     1.4227223407     -0.1197338579     4.7502564909
C     0.563078899     -1.2203629774     4.8726925243
C     1.1286634686     -2.3337777295     4.1837081209
C     2.517368642     -0.5119487535     3.798304875
C     2.3578114029     -1.8747823181     3.4617947001
C     2.5611922061     0.4402617036     2.7513888185
C     0.6884659073     0.8965088788     4.0852722312
C     1.4277686437     1.3797523534     2.9763694193
C     -0.7473707009     -0.90627481     4.2725321037
C     -0.6874898937     0.4370259428     3.7906984259
C     0.214758452     -2.7868694632     3.2285381972
C     -1.0098491897     -1.9159300789     3.2975987302
C     2.2085555878     -2.2334988859     2.0936003921
C     0.8832840276     -2.8579446418     1.9581655806
C     2.7661986926     0.0492725687     1.4004301933
C     2.5469352222     -1.3393579723     1.0395135855
C     2.5284186564     1.0659164299     0.3978283693
C     0.7839627139     1.9792457265     1.8888691429
C     1.5923551665     2.1443534751     0.7005739058
C     -1.2798140264     0.7995879193     2.5527492785
C     -0.6555747811     1.8200389033     1.7166374973
C     -1.6281469687     -1.5907394108     2.0983857633
C     -1.9859836571     -0.205084286     1.7902900471
C     0.1504528859     -2.7672630638     0.7647576759
C     -1.2526076124     -2.3926322241     0.9144000902
C     2.0203432809     -1.6091476111     -0.3007461031
C     0.8026380599     -2.3927665476     -0.4691133747
C     2.6340511559     0.6992921876     -0.9506480262
C     2.2994135465     -0.675160016     -1.3072919503
C     2.2022220469     1.5501643433     -2.0218075925
C     1.0387188041     2.8682760846     -0.3416789944
C     1.4954494399     2.7290108714     -1.6945747755
C     -1.2337552407     2.1805651454     0.4582070003
C     -0.431528289     3.0202445565     -0.3983521147
C     -2.5362979208     0.1123349971     0.4941304027
C     -2.2924328065     1.3854535287     -0.1621394184
C     -1.9592337284     -2.1729263643     -0.2186046565
C     -2.8572592669     -1.004185096     -0.3439452195
C     0.0268432693     -2.2803633624     -1.6894161648
C     -1.3932727332     -2.3933332262     -1.5336950553
C     1.6328860173     -0.6425749181     -2.5890223586
C     1.7154472444     0.71267689     -3.1093447515
C     0.5004837711     -1.4763586809     -2.8324509203
C     0.7242470433     1.1912709329     -3.9937013482
C     0.4135895301     3.1465275837     -2.5470403553
C     -0.80392721     3.2672373903     -1.709528987
C     0.0834580068     2.470036904     -3.691685469
C     -2.6177610391     1.5691923256     -1.5977764976
C     -1.8697386936     2.5568034887     -2.3489892631
C     -1.3818030563     2.2450002412     -3.6767838644
C     -3.136115257     -0.8442632102     -1.6848479135
C     -2.3016919488     -1.8119547402     -2.4546734185
C     -3.0798508677     0.4142948773     -2.3525020205
C     -0.448221463     -1.0059738786     -3.8338222543
C     -0.3039106075     0.291072454     -4.3800843547
C     -1.6194675633     0.9981770688     -4.2399221042
C     -1.8783411748     -1.18228717     -3.594312799
C     -2.540338415     0.1278995219     -3.6691914166


