58

 C     1.1124051983     -0.2089885926     3.9116785014
C     2.2799587023     -0.4738625557     3.2298971667
C     2.1092077853     -1.7237778351     2.493923302
C     0.2360716651     -1.3957196901     3.7672186562
C     0.796291648     -2.2300455802     2.7236190432
C     -1.0514935546     -0.9481897729     3.6263552356
C     0.3461558124     0.9652869817     3.5687772786
C     -1.0094525607     0.5426883778     3.5173349811
C     0.8240338098     1.8899161109     2.5749197792
C     2.8754738725     0.4913099758     2.3648813164
C     2.2326651269     1.7640019015     2.146795253
C     2.6646579998     -1.5273266202     1.2099042998
C     3.3648094283     -0.2417693339     1.2181838493
C     1.9593608301     -1.9564650877     0.0552665894
C     0.0062054874     -2.6281755331     1.6056951193
C     0.667304316     -2.6361373501     0.2825155721
C     -1.9137463936     -1.4486333293     2.6297399908
C     -1.4418192778     -2.3725906624     1.634888287
C     -1.8901088851     0.9115138329     2.5091135711
C     -2.6521867481     -0.2912406085     2.1442854289
C     -0.1505901287     2.4018712373     1.5999201001
C     -1.4884671258     1.8422759197     1.4836280741
C     0.3438483538     3.0860134109     0.4387232851
C     2.6581342978     2.4697650714     0.9823554245
C     1.7170029706     3.2642212934     0.2381841079
C     3.5962410618     0.4186953867     0.0276764686
C     3.4755184497     1.8274916314     0.0016679749
C     2.2361129306     -1.2699539296     -1.2259086683
C     3.0792577569     -0.1283044022     -1.2294773082
C     1.2877749842     -1.4130968812     -2.3286906225
C     -0.1402599845     -2.8743700119     -0.8358689233
C     0.2258375874     -2.3671420351     -2.1781173228
C     -2.2356010758     -2.494991845     0.4169360231
C     -1.5760786776     -2.9914331132     -0.7614861184
C     -3.3063507206     -0.3428592394     0.9683638042
C     -3.3311040619     -1.5784599587     0.2009149777
C     -2.1647776259     1.7578814224     0.187466048
C     -3.2076066608     0.7808201872     0.0267157679
C     -0.3135105325     2.9558691518     -0.8741327708
C     -1.5055322886     2.2336995342     -1.0380640313
C     1.9805047848     3.1323462126     -1.1942792065
C     3.0060305996     2.2016758835     -1.3292544373
C     2.8000753996     1.0040939473     -2.1006654453
C     0.7359435332     2.9344629503     -1.8728096263
C     1.0453616695     -0.3075864302     -3.199348673
C     1.7060837786     0.9522969202     -2.9603561251
C     0.6644955931     1.9606626381     -2.8766735389
C     -1.7300694633     1.5383143417     -2.3267415426
C     -0.3092016366     -0.0300950273     -3.6329364935
C     -0.5918377462     1.3143442778     -3.1544620883
C     -0.9457310878     -2.2664593124     -2.9224588638
C     -2.073292632     -2.6726505001     -2.0678981296
C     -1.2830198252     -1.021041589     -3.5660066263
C     -3.7036350224     -1.1883379187     -1.1116517077
C     -3.5464069638     0.2563942383     -1.2257896459
C     -2.7758875579     0.5531982785     -2.4145855162
C     -3.1064087903     -1.7591155525     -2.2496277491
C     -2.5886483754     -0.662290807     -3.1102540465


