58

 C     1.5600908037     0.051440225     3.9911485899
C     0.7107961933     -1.1252565552     3.8729538348
C     1.2293559242     -1.974199253     2.8753965456
C     2.5111395008     0.0031878163     2.9428159168
C     2.3628056861     -1.2395298385     2.2773261652
C     2.2933413996     1.1624126912     2.0847762452
C     0.7183640438     1.161900478     3.7626931788
C     1.1953220301     1.9200898404     2.6213663674
C     -0.6769248836     -0.7262033157     3.8237478284
C     -0.6724728358     0.7662560409     3.8261435539
C     -1.5495859433     -1.3920419294     2.9699042909
C     0.3423167258     -2.7086757286     2.0122212628
C     -1.0666709194     -2.4327208009     2.0872177295
C     0.8627931693     -3.1136839175     0.7663426124
C     2.6566376236     -1.3665287953     0.8909105966
C     2.1053570053     -2.5186609381     0.2679328642
C     2.5089333129     1.1116540642     0.6834975007
C     2.882819586     -0.1713846924     0.0735358922
C     1.8511550478     2.1349115838     -0.1147202762
C     0.2763365465     2.6062953192     1.773347812
C     0.6359173832     2.7914850482     0.3854838015
C     -1.5757737305     1.455359126     3.0626333127
C     -1.1196027644     2.5201501408     2.1408298379
C     -2.5909749298     -0.651962599     2.248186438
C     -2.6812376707     0.7499042838     2.3813581476
C     -1.8448121926     -2.3768290087     0.8764832937
C     -2.7738287743     -1.2569045236     0.9671114078
C     0.0160491903     -3.331840548     -0.384204557
C     -1.3277662154     -2.8152827216     -0.3753098217
C     2.0828632905     -2.6087352822     -1.1423553069
C     0.8104308495     -3.1787903719     -1.5568127783
C     2.8392034532     -0.2860850208     -1.3668449866
C     2.4377365027     -1.5382454653     -1.9688352687
C     2.0729673961     2.0887950956     -1.5151471014
C     2.5800319842     0.8915075543     -2.1286017899
C     1.1758108431     2.7420675087     -2.4619024658
C     -0.4227375688     3.0293916295     -0.5994785927
C     -0.152421585     2.8847477694     -1.9891156891
C     -2.0938393588     2.6009025935     1.1407598013
C     -3.0494270622     1.5114390912     1.2646192255
C     -1.7683688718     2.7696789402     -0.2239667789
C     -3.0925249862     -0.4761303602     -0.201095264
C     -3.2170411973     0.9483147516     -0.0333831838
C     -2.5884961421     1.8284339134     -0.9914595792
C     -1.7873319159     -2.1394603495     -1.5618397585
C     -2.6106640038     -0.9407892812     -1.4574494161
C     0.3741813233     -2.4677641957     -2.68233493
C     1.4569842076     -1.5433722103     -3.0780863517
C     -0.9519237308     -1.9862368674     -2.7104560768
C     1.9204464348     0.8036165294     -3.4183495949
C     1.136045267     1.9560506056     -3.6396505544
C     1.1768311491     -0.3903350197     -3.7603729996
C     -1.058754666     2.1007146732     -2.8533219515
C     -2.1400395667     1.3697497441     -2.2466367841
C     -2.2505276979     -0.0374439024     -2.5197642745
C     -1.2496259312     -0.6924547181     -3.3351339502
C     -0.2306025837     1.4828841911     -3.8106157038
C     -0.239086135     0.0442069714     -3.943498257


