58

 C     1.5228175969     0.0670987042     4.1995584478
C     0.7354794159     -1.1031382129     4.3115500446
C     1.3893905738     -2.1458780095     3.5811493025
C     2.6011068256     -0.1884975165     3.2401562307
C     2.5435871091     -1.5503003547     2.8890808914
C     2.5577645503     0.8020807653     2.2204382921
C     0.7281908013     1.0974147318     3.6276358014
C     1.3941976475     1.6766983341     2.5023744942
C     -0.6390045916     -0.7528508908     3.9491417528
C     -0.6310374409     0.6632980919     3.4817781904
C     -1.3950832293     -1.6617671083     3.2488388486
C     0.6725932587     -2.9204508661     2.6438416541
C     -0.7498869174     -2.8564157484     2.651168016
C     2.4744997697     -1.9211371696     1.5193101902
C     1.3497714608     -2.8335363167     1.3444436861
C     2.7764881208     0.4461110644     0.8724660864
C     2.723071798     -0.9644526051     0.5051917023
C     2.4220271923     1.4497027776     -0.1206924196
C     0.6516940887     2.2309786565     1.4623996873
C     1.3616958166     2.415339689     0.1929990346
C     -1.3973559359     1.1068279402     2.3842260984
C     -0.80004122     2.0779427716     1.4472834043
C     -2.4067425614     -1.178607663     2.2978966132
C     -2.440796967     0.2056019596     1.8758025921
C     -1.4178375003     -3.0846803873     1.4498642391
C     -2.5707641306     -2.1785665659     1.3257894722
C     0.6361806978     -2.875516274     0.1139614918
C     -0.7795421274     -3.1114285131     0.1769913377
C     2.2661106768     -1.261984343     -0.8386861168
C     1.1446861571     -2.1488463264     -1.040328372
C     2.6435177581     1.1370542397     -1.4611178103
C     2.5704298844     -0.2899838461     -1.8280807395
C     2.0833681787     1.9152867572     -2.5463807881
C     0.7098016541     3.054198813     -0.8539379167
C     1.1251973646     2.9136839386     -2.2355933075
C     -1.487841357     2.4302566615     0.2358741601
C     -0.7634484067     3.1207677757     -0.8235555841
C     -2.9698946381     0.4625614963     0.5951527544
C     -2.6094114335     1.6435805674     -0.1677783277
C     -2.7776753557     -1.8836136507     -0.0298770353
C     -1.6584418858     -2.4667947462     -0.7794608001
C     -3.1744458684     -0.5958323548     -0.3646158024
C     0.2620300713     -1.8709696976     -2.1800074409
C     -1.1875837605     -1.8569534037     -1.9532750147
C     1.993133904     -0.3648392907     -3.0905765049
C     1.792090206     1.0006219788     -3.6180423492
C     0.7722291098     -1.0869097598     -3.2485036594
C     0.5835672083     1.0491661856     -4.3105421414
C     -0.0997785215     -0.2250160227     -4.0167220176
C     -0.0590472425     3.0387981497     -3.0489636202
C     -1.2182143733     3.1404097725     -2.144211226
C     -0.3445616264     2.0895968684     -4.037852241
C     -2.8004177639     1.363466625     -1.5602617313
C     -2.8933326736     -0.0831443374     -1.6723187317
C     -1.9896540762     -0.7579336725     -2.5349233864
C     -1.4242159352     0.0303557113     -3.6081897615
C     -2.1685954728     2.1325473987     -2.557242298
C     -1.6320658641     1.4585972282     -3.6746273329


