58

 C     1.1873880996     0.147230178     4.0387896511
C     2.3056811611     -0.0807825416     3.2328672006
C     2.3225883027     -1.450487829     2.8392352748
C     0.33336455     -1.0546665453     3.9553902772
C     0.9871061961     -1.9924032004     3.1178148439
C     -0.9828632647     -0.6293592134     3.6472898539
C     0.3808785437     1.2510099101     3.7502022136
C     -0.9825328032     0.8363624328     3.7275630583
C     0.6265537417     2.1165264518     2.5945386119
C     2.6062562438     0.7467476064     2.0624475204
C     1.7346603623     1.8413448661     1.7137514303
C     2.8623511004     -1.5171678333     1.5399333167
C     3.0668052242     -0.1324899449     1.0399700164
C     2.384444248     -2.4695884218     0.6732086166
C     0.278087185     -2.6655469653     2.0626815128
C     1.0951763225     -3.1055138022     0.9600751531
C     -1.7438858517     -1.2665199627     2.6061341477
C     -1.1141253901     -2.29722304     1.7686012425
C     -2.7551311954     -0.4414378285     1.9949340839
C     -1.6486073184     1.6040173073     2.752359983
C     -0.6456312491     2.4361867754     2.0377746048
C     -2.6604195268     1.0210120044     2.0291334075
C     -0.8070881739     2.7829622249     0.6793158897
C     1.6137020973     2.2095053454     0.3159476194
C     0.3991829202     2.893890972     -0.1304037147
C     2.9521274049     0.1819180723     -0.3310615351
C     2.4212391192     1.4948058574     -0.6738795801
C     2.4699347392     -2.2312072437     -0.7590340591
C     2.7891637165     -0.9373914045     -1.2802765769
C     0.5343973836     -3.4064549985     -0.2910617473
C     1.412879933     -2.9516208869     -1.3537309886
C     -1.6321709545     -2.5100850268     0.3891306662
C     -0.7786062849     -3.0243204295     -0.6268201413
C     -3.2949145739     -0.7569070973     0.738151424
C     -2.6902085961     -1.7016587049     -0.1130340632
C     -2.9688711636     1.5319668221     0.7027721687
C     -2.0875687509     2.4368761563     0.0304607688
C     -3.5117318534     0.4557745168     -0.0301286095
C     -2.1478504772     2.4073848886     -1.4033685561
C     0.2191814227     3.1162373804     -1.5316803213
C     -1.0742417534     2.9088581886     -2.1409163347
C     2.1860714598     1.7553213123     -2.0603297671
C     1.1660929857     2.6401462513     -2.4580384311
C     2.2833596442     -0.658621928     -2.5943603826
C     2.1643477661     0.6680420662     -3.0113662502
C     0.6271010958     -2.4465529985     -2.4237612604
C     -0.7482449573     -2.4585288149     -1.9895394197
C     1.1264270294     -1.376261266     -3.1548666356
C     -2.6664809732     -1.1312781568     -1.4739697746
C     -3.2044626839     0.2045507232     -1.3939407605
C     -2.64746795     1.234940352     -2.1405445603
C     -1.6196992042     -1.4100928976     -2.396226034
C     -0.926001074     2.1430022379     -3.3801964811
C     0.4327249751     2.0346672475     -3.6279123767
C     1.0086015455     0.8044292369     -3.9001666748
C     0.2410078664     -0.4084838167     -3.7602504862
C     -1.7374753835     0.9604513306     -3.228487029
C     -1.1426029984     -0.3535159261     -3.3411219859


