58

 C     1.421938495     0.1258265743     4.0786315471
C     0.6218569762     -1.0776175594     3.9236168799
C     1.2266193316     -1.9174246558     2.9590968578
C     2.5468165249     0.0273258389     3.2109081953
C     2.5228180118     -1.301285211     2.6343262227
C     2.5452898796     1.1157147249     2.2868110767
C     0.5960051293     1.170979754     3.6166534978
C     1.2476296448     1.7832773643     2.4795299831
C     -0.75185982     -0.7089441129     3.7651408961
C     -0.7639739404     0.7217583652     3.4663667533
C     -1.5631694517     -1.5553487104     3.0206768623
C     0.4169903908     -2.5269192852     1.8961520208
C     -0.978367323     -2.4725347718     2.0593965083
C     0.9712615454     -2.6228365806     0.5276048275
C     3.0592315172     -1.482996971     1.3959266462
C     2.3623918612     -2.3107132903     0.3825018072
C     3.1027574004     0.9553361849     0.9908439472
C     3.6448778144     -0.3598307988     0.6833401774
C     2.5421036456     1.7527361388     -0.0933147698
C     0.5002876161     2.245350589     1.3824069301
C     1.2395948478     2.4229884235     0.1275185879
C     -1.5717057866     1.2238908434     2.4089993585
C     -0.9716532534     2.0682364631     1.3728263391
C     -2.6916229434     -0.9732265249     2.3903496572
C     -2.6867415224     0.3984603573     2.0232986338
C     -1.861873477     -2.4844698555     0.8877964167
C     -3.0032800996     -1.7089084678     1.1935200144
C     0.1077318055     -2.5196316751     -0.6606731323
C     -1.333114578     -2.4757634599     -0.4548487043
C     0.6447731713     -2.0012443306     -1.9277286878
C     2.8806377477     -1.956307624     -0.8573119354
C     3.7252651602     -0.7627287551     -0.6659085664
C     2.0511171543     -1.7610208263     -2.007191641
C     2.8632532467     1.3738049444     -1.4374630314
C     3.4540133227     0.1026469917     -1.7009425591
C     2.5197379677     -0.572016035     -2.6334290989
C     1.9299866087     1.6300548969     -2.5216820485
C     1.6466555985     0.3602830513     -3.1961637847
C     0.4852985035     2.8489847338     -0.9723655916
C     0.8849931005     2.5053610936     -2.3349201837
C     -1.7017747295     2.3003377316     0.1460306946
C     -0.9639238045     2.8593229991     -0.9454688029
C     -3.3073497542     0.5172057915     0.7124343891
C     -3.5689826637     -0.8319840598     0.2360864782
C     -2.9374221032     1.5418210117     -0.1868556217
C     -2.1627272764     -1.9157157243     -1.4710313546
C     -3.3444354157     -1.1127558427     -1.1044211302
C     -0.2043518591     -1.2473878123     -2.8625923378
C     0.3043755728     -0.0222517814     -3.5060661464
C     -1.615769732     -1.3434069377     -2.6745801156
C     -0.2792487333     2.3274176689     -3.1179312842
C     -1.4384557863     2.7137651487     -2.3004854711
C     -0.5946977927     1.0889496544     -3.7302331342
C     -3.2738756445     1.2988434482     -1.5825591604
C     -3.4431342515     -0.0483465266     -2.0084622146
C     -2.4976967756     -0.2844239142     -3.10533734
C     -2.5355158211     1.9542944382     -2.6378475124
C     -2.0195852636     0.9230668651     -3.5609768757


