58

 C     1.364360962     -0.0553573903     3.6618124146
C     2.5311898367     -0.3976533581     3.0047227806
C     2.4843303545     -1.8286470044     2.6620836348
C     0.5052382587     -1.274610933     3.6907986888
C     1.2111479493     -2.3515862757     3.0635746629
C     -0.7657662172     -0.8921834491     3.2753844216
C     0.582359189     1.0690237581     3.2841243808
C     -0.7842851661     0.5781048195     3.2763419687
C     0.9916533602     1.9591027923     2.2422773645
C     2.8986014159     0.3434684331     1.8445464517
C     2.2124981066     1.5723684711     1.5226399929
C     2.9366750818     -1.9593851804     1.3298295663
C     3.2187056958     -0.6238322193     0.807595761
C     2.3049431522     -2.8842399426     0.4736293291
C     0.4906956395     -3.1516557382     2.1474580914
C     1.1514219676     -3.5568676803     0.9629173714
C     -1.4838008264     -1.603918202     2.2129336014
C     -0.8678012832     -2.7657706511     1.7294672055
C     -2.4147889494     -0.8440809017     1.336763182
C     -1.7298298607     1.2347270815     2.5824479905
C     -2.7030186132     0.5018797327     1.7422747578
C     -0.0489145274     2.7427057447     1.5466173692
C     -1.4073451213     2.4869621472     1.9149746047
C     0.1835951924     3.2561802943     0.1820168142
C     2.3541917494     1.9847278147     0.1846521887
C     1.4142924574     2.9159642839     -0.4550159571
C     3.012208619     -0.3105938682     -0.5531413588
C     2.826066845     1.0748861952     -0.8167627112
C     2.0634112729     -2.5528399829     -0.9389385907
C     2.4005141475     -1.2970719106     -1.4836440537
C     0.1893388418     -3.6487808484     -0.1220224896
C     -1.0381440347     -3.1137426515     0.3174132572
C     0.7946984164     -3.182003554     -1.3162885898
C     -2.6039929588     -1.1883336356     -0.0669457793
C     -1.8422080719     -2.3332373814     -0.5813269619
C     -3.0603654455     -0.1487393165     -1.019382125
C     -3.2112782924     1.4413601496     0.8555702451
C     -2.4733403569     2.7046488238     1.0076323002
C     -3.3819758553     1.1625428931     -0.5378030165
C     -0.9408690352     3.462451036     -0.7192080979
C     -2.2614459969     3.2057089902     -0.2647367114
C     -2.934111893     2.3296705427     -1.2352292062
C     -0.889177273     3.0184444462     -2.119414792
C     -2.1134982023     2.2327879634     -2.3733819867
C     1.4819433427     2.7002652096     -1.8508342732
C     2.2403363332     1.4915762009     -2.0441406519
C     0.3116543917     2.5894091086     -2.6519595545
C     1.6250099271     -0.8074634424     -2.6596320289
C     1.5978614396     0.6093987274     -2.9328264864
C     0.3925123037     1.3134761918     -3.3972269681
C     -0.0201678804     -2.6212858068     -2.2693284757
C     -1.4138371072     -2.3385199619     -1.946177807
C     0.4731500615     -1.531691934     -3.0843798563
C     -2.5801426657     -0.1829054432     -2.3778129089
C     -2.0314205243     1.0010938575     -3.0227428522
C     -0.7620412309     0.5872166601     -3.6419798044
C     -1.8024740724     -1.2887735033     -2.8135747653
C     -0.6785648594     -0.834380182     -3.5666415473


