58

 C     1.2696230819     -0.0552517163     4.4967733974
C     0.5669442644     -1.2253675288     4.5488407452
C     1.1361610874     -2.2225530673     3.6337905463
C     2.2954601942     -0.2250349987     3.4583720542
C     2.1895008104     -1.5663951149     2.8885279719
C     2.1689908141     0.8405906532     2.5775874656
C     0.335612778     0.9771738621     4.0264886988
C     0.9279277326     1.6018830555     2.9373443325
C     -0.8444594933     -1.0076015588     4.2079288529
C     -0.9783650653     0.3768359418     3.8068225316
C     0.0517174681     -2.7874620598     2.9369565025
C     -1.194922737     -2.0227485414     3.2983300849
C     0.223727858     -3.151779728     1.5955041136
C     2.2594634008     -1.726920089     1.4624543657
C     1.3774574687     -2.6898562276     0.8754316744
C     2.4824787343     0.720790694     1.1949894433
C     2.5990507542     -0.5785046889     0.604284469
C     2.1413473401     1.8630690119     0.3801065827
C     0.1625231364     2.1438969254     1.8674934814
C     0.9247316579     2.6093648965     0.732776667
C     -1.7052442181     0.7051093165     2.6117358259
C     -1.2066379914     1.7559793372     1.7074698126
C     -2.097130722     -1.7281195055     2.2682698892
C     -2.4213170595     -0.3596134904     1.9766127432
C     -0.8831250465     -3.1223461104     0.6552965955
C     -2.0366138561     -2.4147735577     0.9896675791
C     1.0351184016     -2.638952259     -0.5293365497
C     -0.3495625322     -2.9598347208     -0.6795668147
C     2.484332008     -0.6660351952     -0.8528834423
C     1.6784838314     -1.7602728408     -1.4382744734
C     2.5261851106     1.8158496056     -0.9678687058
C     2.64293879     0.5068135662     -1.6089432341
C     1.9459549698     2.706913529     -1.9113064939
C     0.2076802736     3.2380658388     -0.2957852312
C     0.7961646036     3.412217541     -1.5780075875
C     -1.8162850773     1.9720475866     0.393770723
C     -1.1897284771     2.8578467421     -0.4979374245
C     -2.8097378145     -0.2804421127     0.5852025718
C     -2.6272245677     -1.5626722022     -0.019322765
C     -2.6701648826     0.9072734574     -0.1776970321
C     -1.1031626732     -2.4184495261     -1.7551087512
C     -2.3208867881     -1.6714737533     -1.4021173801
C     1.0416677702     -1.5828171227     -2.6870943311
C     -0.3406613636     -1.9681540154     -2.8669459576
C     2.0937450068     0.6500606927     -2.9646065469
C     1.6853739062     1.9853630936     -3.1631692838
C     1.2887917183     -0.3906458959     -3.5106572244
C     -0.2107217512     3.1484653467     -2.6135329551
C     -1.404627549     2.7960309641     -1.9505054328
C     0.3615118278     2.3088514028     -3.6387133421
C     -2.7815243739     0.7624038251     -1.5788351727
C     -2.6657896375     -0.5418747396     -2.192942485
C     -2.1982471147     1.7483720704     -2.4998415275
C     -0.9053048896     -1.0388749686     -3.8015172361
C     0.1233020517     -0.0681864216     -4.2252838292
C     -0.4347577922     1.2604757575     -4.1671269742
C     -2.0474402291     -0.3382667407     -3.4704373411
C     -1.7803251423     1.0995357966     -3.6734641851


