58

 C     1.5225642556     0.0715776627     4.1114858243
C     0.698889281     -1.1405954504     3.9705530126
C     1.4386171392     -2.0714044389     3.2643074241
C     2.6768077343     -0.0901739362     3.2346697038
C     2.7032242391     -1.4211179406     2.8108071771
C     2.6638075333     0.9422316254     2.2111201809
C     0.7662889364     1.0859476667     3.5506232845
C     1.4806381239     1.7347483972     2.4487466779
C     -0.6171461298     -0.7862452217     3.4483179697
C     -0.5969380224     0.638716999     3.2810787454
C     -1.2832876465     -1.5780881513     2.4610889317
C     0.8847357631     -2.7709988917     2.1553836397
C     -0.5216617277     -2.6816626222     1.8515314583
C     2.8861889578     -1.74899689     1.4551315611
C     1.8340188408     -2.7022440998     1.0787493278
C     3.0122142498     0.6603450347     0.8647535433
C     3.244894753     -0.7460296175     0.5056142329
C     2.50537109     1.5787762441     -0.171062699
C     0.7569962981     2.3458654436     1.4257780208
C     1.3482267363     2.4178068316     0.0957147282
C     -1.3579866849     1.2974363386     2.3191692531
C     -0.7113745246     2.3782489381     1.5566232437
C     -2.3266603495     -0.9071664746     1.6815682635
C     -2.4347132295     0.5439432554     1.6974036997
C     -2.8189285211     -1.5611890153     0.4968898092
C     -0.8918704443     -3.0934269454     0.5445486567
C     -2.1102955447     -2.6435501681     -0.0191173162
C     1.4195368139     -2.8462300502     -0.28216995
C     0.0580668627     -3.1365458723     -0.538090686
C     3.0833089193     -1.1073430842     -0.8657691577
C     2.1311777566     -2.1321748423     -1.2778236617
C     2.7745101246     1.2264868125     -1.5403548831
C     3.0985443159     -0.1240128167     -1.8540790148
C     1.9260572079     1.6986013086     -2.6004050706
C     0.5084741291     2.9043101883     -1.0050122385
C     0.7947262643     2.4382888012     -2.3513615387
C     -1.4464863122     2.9575441877     0.5374380977
C     -0.8348185429     3.258616181     -0.7594848442
C     -3.1889177963     1.2161767528     0.6880529774
C     -2.7848459117     2.4980540202     0.2748985132
C     -3.3392232881     -0.8096053826     -0.6598147848
C     -3.657374493     0.5148024307     -0.5345779866
C     -1.9438446844     -2.4395538144     -1.4587010242
C     -0.5975595607     -2.6548799562     -1.7675291349
C     -2.6488255722     -1.2872562161     -1.858187466
C     1.5042893354     -1.7196899044     -2.5243086389
C     2.2095654461     -0.5608732491     -2.9472397193
C     1.5274646524     0.5290164565     -3.4239351382
C     0.0790773449     -1.7902115052     -2.6886825636
C     -0.3137437416     1.8531627733     -3.1671339973
C     -2.0566391913     -0.3606795985     -2.7847655906
C     0.1140904502     0.5306595139     -3.5825481647
C     -0.6673877068     -0.6165856475     -3.2228076345
C     -1.8619482995     3.0789727127     -1.7803545256
C     -3.0242883971     2.6391490393     -1.1451912718
C     -3.4618589192     1.3786374645     -1.6699287254
C     -1.6079697134     2.1188827488     -2.8410354425
C     -2.5457785895     0.9915260144     -2.7005751191


