58

 C     1.4544817064     0.0050548093     4.3515551968
C     0.6213378852     -1.1764303531     4.0393237136
C     1.3684534784     -2.0393911536     3.2425563445
C     2.6092688607     -0.0531782393     3.4899163671
C     2.6207682691     -1.3075928215     2.8829288944
C     2.5893323213     1.1099871133     2.5844891843
C     0.7051680997     1.1021597394     3.9381529997
C     1.4207513445     1.8635094901     2.9091863637
C     -0.6821190027     -0.7707699885     3.5971198364
C     -0.6611877856     0.7021786987     3.6441011519
C     -1.3008059655     -1.3932119402     2.4781958288
C     0.8380620661     -2.537626537     2.0326354368
C     -0.5208588703     -2.336540884     1.6644799767
C     2.8551355395     -1.4780679806     1.4978725573
C     1.8440389128     -2.373728661     0.9871574107
C     3.0228831364     0.9923753645     1.2204577003
C     3.2711519643     -0.3644930481     0.6777866185
C     2.4877972454     1.9391917538     0.3071225681
C     0.6789968554     2.5598333641     1.895920287
C     1.311636244     2.7104546134     0.6303490563
C     -1.3760696778     1.4340979762     2.726321295
C     -0.7534717907     2.4777904059     1.9159881933
C     -2.3561521832     -0.6334074759     1.7910817313
C     -2.3778821071     0.7906818654     1.9213571501
C     -2.8937338707     -1.1558890475     0.6100896725
C     -0.8762652951     -2.5718220205     0.267527269
C     -2.2115333611     -2.2441753431     -0.1004845841
C     1.5259068758     -2.4360745017     -0.3783974099
C     0.1426945556     -2.6638769586     -0.7893137237
C     3.1720972289     -0.5779507939     -0.6986159204
C     2.4230100808     -1.7216322612     -1.2346263362
C     2.489048207     1.724233154     -1.1272050682
C     2.9573150939     0.5104732053     -1.6416245686
C     0.5532550585     2.8773749915     -0.5814277996
C     1.3129536197     2.3327244322     -1.6996274789
C     -1.500227846     2.5546901096     0.7117382602
C     -2.5970233622     1.5965041374     0.7585108079
C     -0.871801943     2.8300939577     -0.5550664952
C     -3.5294964197     -0.3270775303     -0.3940913929
C     -3.2018340381     1.0817057915     -0.413201002
C     -2.611024832     -2.1909333609     -1.4405645793
C     -3.501100412     -1.072481325     -1.6116940621
C     -0.227198026     -2.374762597     -2.17152504
C     -1.6303055217     -2.1773379652     -2.5076017624
C     2.014972499     -1.4036384558     -2.5360632528
C     2.3272603938     -0.0186788471     -2.7997437785
C     0.7088470593     -1.6864371734     -3.01513934
C     0.6511528847     1.7886550681     -2.8314089496
C     1.1884391241     0.5664754437     -3.4038019825
C     0.2854687013     -0.5146574286     -3.7864942069
C     -1.5487680061     2.399536596     -1.7291107478
C     -2.7858109255     1.6713534843     -1.6739872831
C     -0.7824840777     1.9690066637     -2.9204191866
C     -3.1465415014     -0.4608923039     -2.8350279623
C     -2.0248100932     -1.2166998253     -3.4611863193
C     -1.0722390022     -0.259071439     -3.9439960544
C     -2.836579636     0.8906678703     -2.8757791929
C     -1.574359789     1.0577182015     -3.6166963418


