58

 C     1.3716699207     -0.0491012654     4.9583857531
C     0.5141567137     -1.1822020896     5.022408172
C     1.1561048765     -2.2926289569     4.4430944668
C     2.5659262967     -0.4415905978     4.193318732
C     2.4339995792     -1.8245265492     3.8754279153
C     2.7214610978     0.4981402786     3.1127663566
C     0.7054455528     0.9344890246     4.1656435628
C     1.5440582663     1.3994912416     3.1111811295
C     -0.7053510276     -0.8951606067     4.2381647386
C     -0.6348780342     0.4544404939     3.78606496
C     0.3552638931     -2.733192536     3.3312691893
C     -0.8660689222     -1.9219808671     3.2523069059
C     2.4648595542     -2.2292422134     2.4970418897
C     1.1443560133     -2.8232384106     2.1577405185
C     3.1307278577     0.0474335121     1.8580650864
C     2.9951440746     -1.3693449234     1.5365961332
C     2.7650376987     0.776284128     0.6660725568
C     0.982237083     1.8780130597     1.8922443121
C     1.7579107268     1.7795020543     0.6697291371
C     -1.1437431504     0.7982136477     2.5187274106
C     -0.4584148388     1.7985964133     1.6997674497
C     -1.375947117     -1.5897269402     1.9856968931
C     -1.7964440966     -0.2279537375     1.7409589829
C     0.5599800525     -2.628076406     0.8663689142
C     -0.8280354417     -2.2252456681     0.7862712463
C     2.5555536379     -1.4420700786     0.1612034976
C     2.6963495723     -0.1459628752     -0.4283735712
C     1.3866072067     -2.1534972197     -0.2269984351
C     2.1090567728     0.1892054503     -1.656473597
C     1.1766482336     2.1685477116     -0.5979639806
C     1.6495068708     1.552476983     -1.829270974
C     -1.0237890482     2.1497151644     0.4503238997
C     -0.1755284865     2.6717713807     -0.6178111973
C     -2.3404790292     0.1090345305     0.4731541256
C     -2.2385161577     1.4704355575     0.0111599649
C     -1.4032073009     -1.9078090798     -0.4734803355
C     -2.479268665     -0.9251567858     -0.5290035055
C     0.7930888131     -1.8499292002     -1.5137088154
C     1.4087759232     -0.8502879316     -2.3720297114
C     -0.6268851887     -2.0557885935     -1.693452017
C     0.7850275147     -0.4932980166     -3.6036873666
C     1.0315984916     1.8799395366     -3.0677069296
C     0.7583099943     0.8506880041     -4.0395343096
C     -0.7646990504     2.9927740956     -1.8800049731
C     -0.0877817386     2.740061062     -3.0969882941
C     -2.8146879837     1.7774397846     -1.248529247
C     -2.1364068589     2.6519302294     -2.149910995
C     -3.0529339399     -0.5953143809     -1.7815456918
C     -3.3772523096     0.7594966528     -2.0711793858
C     -1.2471481078     -1.7109747813     -2.9390834848
C     -0.4804491265     -1.065567235     -3.9793615509
C     -2.5511913766     -1.1645500147     -3.0022071984
C     -0.534488887     1.1117039132     -4.7196145758
C     -1.06436152     2.2751428223     -4.1444182684
C     -2.3511909672     2.2631726104     -3.5419401936
C     -3.1008211599     1.0523280272     -3.5008512173
C     -1.2874089622     -0.1091096725     -4.6958644003
C     -2.5714837753     -0.1279397566     -4.0601596786


