58

 C     1.3332028504     0.0733603041     4.0443483706
C     2.4855981632     -0.1363133546     3.2745806796
C     2.4488741288     -1.5141707255     2.7869697558
C     0.4820030206     -1.1581365148     3.9621846557
C     1.2126091629     -2.1305137005     3.2084015481
C     -0.8085578208     -0.7599663955     3.559497824
C     0.5460338391     1.1923579318     3.8182445082
C     -0.8172813257     0.6890405023     3.596868314
C     0.8340983992     2.0951465971     2.7453071448
C     2.7885392553     0.7287702812     2.1778889706
C     1.9544928434     1.8741488921     1.8713859196
C     2.8437668219     -1.5418760856     1.4353824812
C     3.1690919162     -0.1601574898     1.0965402418
C     2.1738538562     -2.3848574006     0.4715548879
C     0.5333403985     -2.9246604914     2.2961982038
C     1.1148740764     -3.2037238247     0.9876960293
C     -1.5119069449     -1.4535251195     2.4821554729
C     -0.8936610593     -2.6774043292     2.0589569227
C     -2.2989433702     -0.6976835098     1.5083739115
C     -1.415044142     1.4077369654     2.592064393
C     -0.4319480113     2.4027288788     2.1222619221
C     -2.2901132046     0.7662739151     1.6270999765
C     -0.5604408818     2.9643209693     0.8588976667
C     1.8196810257     2.3033827302     0.4661415615
C     0.6324873123     3.0355673133     -0.0025744781
C     3.0471923488     0.2444028988     -0.2032614814
C     2.5195353187     1.5593466779     -0.5201500587
C     2.110842837     -1.9570915408     -0.9421763141
C     2.6568875704     -0.6782259098     -1.2457881682
C     1.0409952119     -2.4327000584     -1.8357986444
C     0.0418503378     -3.5374198954     0.1207325596
C     -1.1984027905     -3.1865867586     0.7865870992
C     -0.0355081528     -3.1672655948     -1.2285630464
C     -2.5923385092     -1.2561711272     0.1743131046
C     -2.0241830411     -2.5211795063     -0.1379480659
C     -1.4148394873     -2.7341116953     -1.4523763466
C     -2.9445925159     -0.3761213239     -0.9676816461
C     -2.6217775943     1.5765075347     0.5487175384
C     -1.8574238639     2.783405637     0.2550105983
C     -3.0942052293     1.0350006805     -0.7267939977
C     -2.0399545381     3.0574802588     -1.1060572029
C     -2.8512565884     1.9885309581     -1.7231842623
C     0.4078628933     3.1777208728     -1.400054142
C     -0.9347049348     3.2834996209     -1.9234184861
C     2.115951256     1.5231557768     -1.8962740524
C     2.1948451334     0.1283292986     -2.356623119
C     1.1294883809     2.3664962748     -2.3594143201
C     0.6898236658     -1.6663439938     -2.992408281
C     1.2799772118     -0.3627375691     -3.2590915801
C     -1.718935792     -1.9106123443     -2.501937314
C     -2.5753135408     -0.7377852889     -2.2975997732
C     -0.6726777128     -1.5492774062     -3.3984532458
C     -2.2587711468     1.6327096052     -2.973848216
C     -1.0735878895     2.460809841     -3.1162360202
C     0.1859127579     1.8821657935     -3.3910252668
C     0.2538773005     0.537871416     -3.8217894626
C     -2.1666696907     0.2646041884     -3.2807443365
C     -0.9445495253     -0.2182537002     -3.873090973


