58

 C     1.2387052794     -0.0321920936     4.1259054853
C     2.4481436247     -0.3251795281     3.5116291872
C     2.3042398581     -1.5959490205     2.7457643335
C     0.3595978278     -1.1938745171     3.9106509935
C     0.9898248477     -2.076193151     2.9144659255
C     -0.9161176719     -0.7349687542     3.7179018481
C     0.4893874441     1.1391375748     3.7137023142
C     -0.8931089451     0.7340467653     3.6265163037
C     1.0045958634     2.0231403856     2.7119823731
C     3.0684457497     0.611299285     2.6794182132
C     2.3692428037     1.7744183327     2.2784454218
C     2.8502597192     -1.404341837     1.4556925691
C     3.447474322     -0.0905866037     1.4314710607
C     2.1556765409     -1.855747475     0.2949368265
C     0.2464552404     -2.5207657145     1.7773239586
C     0.8910191035     -2.5602630958     0.4640344285
C     -1.7349514729     -1.2574951992     2.6812079766
C     -1.2203902128     -2.2825944694     1.8092473972
C     -1.6958638988     1.0646843414     2.5379908514
C     -2.4025988871     -0.1455457289     2.0766272158
C     0.0604010225     2.567337652     1.7008233714
C     -1.2962898717     2.0394890169     1.5600039437
C     0.6292721842     3.164597614     0.5362977962
C     2.738800115     1.9936483224     0.8720198549
C     3.3128448183     0.7501820155     0.3388452587
C     1.9634926282     2.7597142143     0.0733948028
C     2.4137141359     -1.1371770115     -0.9591306554
C     2.8789693415     0.2439450605     -0.9282248434
C     1.7079544747     -1.5646997648     -2.1054461348
C     0.0824265561     -2.8483002707     -0.7279383608
C     0.5510901497     -2.4708301087     -2.0053433828
C     -1.9597575749     -2.4724639017     0.6509885317
C     -1.3524304432     -2.9876594537     -0.5870490548
C     -2.9907799703     -0.247064039     0.8114833211
C     -3.0319689793     -1.5810783675     0.2777550867
C     -1.9904776484     2.0148700941     0.2673301772
C     -2.8940442525     0.8951864317     -0.1064385332
C     -0.1276049843     3.3146652066     -0.6238199702
C     -1.413832438     2.7501047361     -0.8033615954
C     1.8995033494     2.4824414068     -1.3678318371
C     2.3414596847     1.2056385217     -1.8870406988
C     0.6863056042     3.0178060846     -1.8126913329
C     1.5012280115     -0.698111074     -3.192836728
C     1.6370123458     0.7071488531     -3.0205335999
C     -0.3590528901     -2.1393125182     -3.0957625741
C     0.2000177871     -0.9993100584     -3.7617821984
C     -2.2164341265     -2.6990351801     -1.6405158588
C     -3.2579347591     -1.7866583475     -1.100097159
C     -1.7529465606     -2.1769549532     -2.8908420764
C     -3.1223793173     0.6322206998     -1.4840863922
C     -3.3596890198     -0.7163304285     -1.9542770521
C     -2.5111308465     -0.9685862304     -3.1379510978
C     -1.4907407563     2.2977973828     -2.190515936
C     -0.1347159058     2.3766534705     -2.7732891025
C     0.3816847685     1.2976176395     -3.4879266233
C     -0.5112458325     0.2113422898     -3.8920018492
C     -2.3267471643     1.2677478531     -2.5270049368
C     -1.8860107718     0.2323876755     -3.4901172437


