58

 C     1.1988105479     -0.0113523227     4.7195523669
C     0.4077818733     -1.1344137574     4.350528565
C     1.2015666112     -2.0138147693     3.5706425197
C     2.4638789168     -0.116911821     3.9635597998
C     2.4981400487     -1.3705310141     3.2969828967
C     2.633911906     1.0553087212     3.2039743746
C     0.5231989786     1.1380665869     4.2195564444
C     1.3957197453     1.8904186084     3.3976469288
C     -0.8422448259     -0.6782601349     3.7439064847
C     -0.7609295856     0.7596338572     3.644621594
C     -1.4652187301     -1.431115153     2.7091010979
C     0.7056852434     -2.59805699     2.3819958796
C     -0.6838518506     -2.4952873057     2.035658096
C     2.6829196234     -1.444726845     1.8926898724
C     1.6807052887     -2.3656633443     1.3414752549
C     2.8588868292     0.9886943422     1.816194902
C     2.9300636753     -0.2753873712     1.1053618427
C     0.9824815067     2.3817695371     2.156770269
C     2.0204242318     2.0191554584     1.199826281
C     -1.255865142     1.4203272168     2.475884772
C     -0.3879352122     2.2930320724     1.6879636396
C     -2.3659761869     -0.7107842392     1.886251701
C     -2.245438099     0.7170497554     1.7475879673
C     -2.8449788719     -1.2263705123     0.6231516235
C     -0.9998310854     -2.8082083601     0.7056666455
C     -2.1985084005     -2.3166988716     0.0575594483
C     1.326522046     -2.3655800793     -0.0191661535
C     0.0142188293     -2.8312529502     -0.3258825553
C     2.5764285177     -0.2792325236     -0.3046692884
C     1.9198375428     -1.3991201601     -0.9423330989
C     1.7997201633     2.0662707236     -0.1409811363
C     2.3916454475     1.0004920817     -0.9563542432
C     -0.6274164121     2.4689553919     0.2808689143
C     0.5256425896     2.6352121051     -0.6079944054
C     -2.6190477822     1.0801254651     0.4085729219
C     -3.1888349545     -0.0925415677     -0.228679343
C     -1.8584254865     1.9977884193     -0.3622146367
C     -3.1925463458     -0.2063186593     -1.5938822897
C     -1.9889173832     -2.3347607694     -1.3763203073
C     -0.5826416159     -2.5913281501     -1.6111182297
C     -2.6768611848     -1.4463866083     -2.2007529709
C     1.4050473667     -1.2934191557     -2.3078851022
C     0.1223469966     -1.9448299441     -2.6640831689
C     2.1499217867     1.0354848342     -2.312642607
C     1.7761344808     -0.1390518141     -3.0546790552
C     0.343621405     2.7257622085     -1.9752992165
C     1.3737627639     2.1490034846     -2.8622798983
C     -2.0023570654     1.9735254155     -1.8337478444
C     -2.777945476     0.9089316811     -2.4332704668
C     -0.9357805721     2.523515016     -2.6300106175
C     -2.0704379022     -1.0799405302     -3.4140407437
C     -0.6959475046     -1.3528205557     -3.7085054544
C     -2.3359988045     0.337729908     -3.671877071
C     1.0018944581     0.3435851098     -4.1960175278
C     0.8178967639     1.7997083733     -4.067747081
C     -0.6336112933     2.0194578237     -3.9511373847
C     -0.2216059997     -0.2304162091     -4.4721501346
C     -1.2696624015     0.8555782812     -4.3978310616


