58

 C     1.5035549831     0.0662954361     4.1815318611
C     0.7737845891     -1.0927622137     3.9521513553
C     1.5068234193     -1.9944999507     3.0593666558
C     2.6367764418     0.0399583352     3.2697329995
C     2.7174102741     -1.2746114965     2.6931188557
C     2.5384356501     1.1439421524     2.3959064885
C     0.6613378356     1.186727913     3.8134118567
C     1.3663676771     1.9361963453     2.8311859575
C     -0.6027602373     -0.7063164761     3.6279398012
C     -0.6732489545     0.7583767747     3.5277437941
C     -1.2765400655     -1.448445164     2.6980531606
C     0.8007282929     -2.7420658067     2.0732819159
C     -0.6268360523     -2.5430058856     1.9532777937
C     1.4770232341     -3.0526424774     0.8397864678
C     3.2210101902     -1.3872335293     1.3923471366
C     2.7228118414     -2.4292596921     0.5821103447
C     2.8259186856     1.0273904459     0.9618045696
C     3.3119152782     -0.2152142037     0.5174256778
C     2.1203837835     1.9052170677     -0.0012775747
C     0.6332579983     2.6045932873     1.8815156117
C     1.1305691884     2.768877777     0.5214529095
C     -1.4227285705     1.3823151191     2.4764300253
C     -0.7982223868     2.4711084113     1.8015014832
C     -2.2594665895     -0.8229919896     1.8270913671
C     -2.3514905929     0.5811914497     1.6605903513
C     -1.2850475363     -2.6470667927     0.7118132032
C     -2.4067590646     -1.7043173919     0.712186159
C     0.7757131194     -3.1345363812     -0.4392544927
C     -0.6119952804     -2.9197240953     -0.5445286359
C     2.7857840361     -2.0447158992     -0.8182370944
C     3.0530708942     -0.6650314761     -0.8635979705
C     1.6546878239     -2.5770402846     -1.4743901046
C     1.993032971     1.5124916781     -1.4265179077
C     2.38484361     0.1584479569     -1.8217376372
C     1.0397228136     2.1689872837     -2.2415636233
C     0.013309015     3.1858472385     -0.2605913355
C     -1.1913378679     2.8686519932     0.4724388961
C     0.0417802577     3.0553520093     -1.644876395
C     -2.8692641238     1.0832283427     0.3745365086
C     -2.3213642856     2.3304198613     -0.2037172902
C     -2.9710727879     -1.2580704119     -0.4439360145
C     -3.3795612379     0.1226702382     -0.5481412612
C     -1.1831397637     -2.376052415     -1.8004412382
C     -2.4678952786     -1.7202416911     -1.7529415763
C     1.1202317273     -1.8675172236     -2.530446541
C     1.5884154336     -0.5221016624     -2.8008836868
C     -0.2946490924     -1.9012751449     -2.8142801002
C     0.377690833     1.5154904735     -3.365838917
C     0.5577774111     0.1441542211     -3.5500539011
C     -0.6065620988     -0.7481398228     -3.6377985519
C     -1.179035187     2.9522428941     -2.3275203743
C     -2.3629088981     2.5450333178     -1.6348456204
C     -0.9667990271     2.0506749513     -3.465897503
C     -3.4287516742     0.3923759767     -1.9577778102
C     -2.8315897218     -0.7547448512     -2.6908513598
C     -1.9023897146     -0.2128254839     -3.6377012587
C     -2.9966348934     1.5734080708     -2.5011958879
C     -2.0661183552     1.2307829512     -3.6088915427


