58

 C     1.3026431381     -0.1270698722     3.4982798231
C     2.3999749877     -0.3178092173     2.640666144
C     2.2504754033     -1.6757065311     2.0980892249
C     0.4194061935     -1.3054879388     3.4443899661
C     0.9323540679     -2.2009046565     2.4913504555
C     -0.9213824068     -0.8697674255     3.4434983968
C     0.5018859048     1.0357896301     3.4870739077
C     -0.9104463481     0.604038531     3.5273962938
C     0.880030536     2.0864426303     2.62853453
C     2.8212797984     0.7569109223     1.7671543935
C     2.0315892848     1.9493506017     1.769762443
C     3.4484432635     0.3835583713     0.5319458857
C     2.7798533734     -1.9787408634     0.8729123974
C     3.5553138335     -0.9881640996     0.196868165
C     1.9538086218     -2.6791603657     -0.1394105281
C     0.0673639518     -2.7959518286     1.5158309172
C     0.6100087019     -3.0575921465     0.1558891915
C     -1.8068432428     -1.5084344275     2.5652176239
C     -1.3226402126     -2.4984448612     1.6459554894
C     -2.8650372452     -0.7443226027     1.9006609716
C     -1.8752586872     1.3299821143     2.8679679961
C     -2.9291935975     0.6420192083     2.0984681143
C     -0.1297431456     2.8443220925     1.9252132959
C     -1.4841408698     2.5171920669     2.0844104238
C     1.7263018888     2.6310119625     0.5264144511
C     0.37716928     3.1332209548     0.6044474338
C     3.2020316479     1.12176347     -0.7122599947
C     2.2880443441     2.2066486335     -0.7191138804
C     3.2923219546     -1.1261651403     -1.2070364078
C     2.3196622895     -2.1513463655     -1.4254337775
C     3.1871705574     0.1508627118     -1.8051823045
C     1.3440864146     -1.9919427934     -2.4783571641
C     -0.2874502661     -3.1162134742     -0.9490620285
C     0.0749230527     -2.6262298482     -2.2516705584
C     -2.1887912676     -2.4409933589     0.4741888055
C     -3.0887679144     -1.3035782557     0.5930766646
C     -1.7321433291     -2.8506843351     -0.7639520067
C     -3.336898333     -0.4660795304     -0.5547420243
C     -3.2348940204     1.4607414072     0.9784785862
C     -2.3694339874     2.6216885223     0.9761253857
C     -3.3483536002     0.9544851698     -0.3373593343
C     -0.4963353876     3.110635393     -0.5504850974
C     -1.8940177994     2.8062090181     -0.3364281753
C     -2.5725307073     1.8328576508     -1.1934864973
C     1.4651085573     2.3950055352     -1.907915918
C     0.0669569401     2.762543855     -1.7924688513
C     2.2788337499     0.2964592009     -2.8679733135
C     1.3764913964     -0.7939628103     -3.2491852491
C     1.5804876435     1.5246405656     -3.0112414639
C     -1.9573512368     1.3478535477     -2.3734850002
C     -0.6816530873     1.9571423445     -2.7528476123
C     0.1219270993     -0.1612030624     -3.6753228759
C     0.2536931355     1.2503309605     -3.527287777
C     -1.1065112783     -2.0539022185     -2.8244863948
C     -2.2120921029     -2.1844919667     -1.921237878
C     -2.8594045666     -0.9225670873     -1.8252508991
C     -1.1180137964     -0.7668491896     -3.4110428602
C     -2.1803125855     -0.0099407891     -2.7465414847


