58

 C     1.4132184754     -0.0021518035     4.2897232461
C     0.6230000589     -1.1777601141     4.0618874252
C     1.3636376471     -2.0755277307     3.2557179776
C     2.5612690527     -0.0810088973     3.3611808218
C     2.5623789622     -1.3320905708     2.7585616816
C     2.5632057427     1.0421935585     2.4771128944
C     0.6477699401     1.0554640677     3.7785810433
C     1.3780885039     1.8268491024     2.8057776488
C     -0.7041653272     -0.8053577486     3.583259158
C     -0.6845010751     0.6290591815     3.3944174756
C     -1.3881337344     -1.6283768774     2.6501766131
C     0.7840783763     -2.7419741412     2.180565483
C     -0.6431114107     -2.7162997162     1.9912910894
C     2.6191226984     -1.5121192689     1.3392650654
C     1.6256805703     -2.489453657     0.9980358452
C     2.9085332928     0.889758886     1.0877831295
C     2.8471509875     -0.4283008613     0.4427576742
C     2.5952892241     2.0040930652     0.3055346657
C     0.712618554     2.5633226549     1.8167009659
C     1.5702391127     2.9514940347     0.7478037291
C     -1.3416248354     1.2420256025     2.2894398871
C     -0.6985416775     2.306213828     1.503972798
C     -2.3810592644     -0.9777286782     1.8558630983
C     -2.3230171662     0.4514455428     1.6443898982
C     -2.9414542404     -1.581292403     0.6806314287
C     -1.0833999856     -3.1624786683     0.7425235741
C     -2.3608568979     -2.7669740433     0.1872934413
C     1.1277317042     -2.602530585     -0.305314718
C     -0.152091292     -3.2656981948     -0.393695217
C     2.388958959     -0.5289414165     -0.9468384787
C     1.5534439791     -1.6622437374     -1.3378648514
C     2.5913669738     1.9634326454     -1.131429882
C     2.4079883634     0.6822794863     -1.7847794568
C     1.0491989069     3.544651308     -0.3819258118
C     1.8375239617     3.1069652297     -1.5512891706
C     -1.1850203032     2.6127273101     0.1736918975
C     -0.3352232761     3.3950626325     -0.7090012895
C     -2.791089326     0.731837659     0.3156592323
C     -3.2808666783     -0.5116675415     -0.254073097
C     -2.202283696     1.7500081225     -0.4685491612
C     -3.2065042314     -0.7168590395     -1.6293806062
C     -2.2934190885     -2.963882392     -1.2296955219
C     -0.8777950142     -3.2281044036     -1.5800403637
C     -2.7515646101     -2.0074972761     -2.1049890691
C     0.7311163157     -1.5913094387     -2.560280941
C     -0.490814019     -2.3849743633     -2.6491566959
C     -1.7153430941     -1.7566390264     -3.1125280803
C     1.647600589     0.6989510282     -3.0066465573
C     0.7619859038     -0.4071851368     -3.3222958988
C     0.9831697982     3.0373878968     -2.6249490437
C     -0.4117077297     3.259565398     -2.1346879194
C     0.99242908     1.9006963341     -3.4447137718
C     -2.1858013947     1.5457589518     -1.9362250934
C     -2.6049436647     0.3040734244     -2.4599708712
C     -1.7200996668     -0.4086572842     -3.4231367669
C     -0.4978994282     0.1793067732     -3.7978309213
C     -1.2080285934     2.2807020825     -2.732303495
C     -0.3874350026     1.5597592089     -3.7060061278


