58

 C     1.176702209     -0.1009909585     4.1105616014
C     2.3270686396     -0.2721202649     3.3773973913
C     2.2598380601     -1.5519159473     2.6447626082
C     0.3322649955     -1.304238148     3.8592340439
C     0.9531293749     -2.1055869709     2.8331434963
C     -0.9501425229     -0.8610682082     3.6699338748
C     0.3528182583     1.0789771406     3.9159031312
C     -0.9850888034     0.6163606397     3.7870141564
C     0.8071484935     2.0781255705     2.9897719914
C     2.8202151231     0.7234434184     2.4534776847
C     2.0883158091     1.8998591609     2.2871338699
C     2.8323596962     -1.3910499551     1.3824269949
C     3.2832336162     0.0054802044     1.2652044978
C     2.2733388473     -2.0652536773     0.2572120053
C     0.2217998224     -2.5091623101     1.6748963383
C     0.9864891308     -2.7069563504     0.4472686046
C     -1.7234741141     -1.2394409772     2.5275577164
C     -1.1936298913     -2.1095306214     1.5430667538
C     -1.8504500942     1.0912602172     2.7969360449
C     -2.4504333187     -0.0552924408     2.1049429152
C     -0.1018722887     2.655717411     2.0613126568
C     -1.4615037693     2.2240662998     1.9910739975
C     1.9459997692     2.4660055992     0.953369919
C     0.6159186404     2.9503760358     0.7874815839
C     3.2445623315     0.6020858049     0.0271630891
C     2.5732882301     1.8793207012     -0.1461751816
C     2.6234091338     -1.5636557668     -1.0801937828
C     3.0190363411     -0.1892655566     -1.1648025267
C     1.9475342665     -2.1034949699     -2.2094443663
C     0.2456332024     -3.0591913368     -0.7193602
C     0.8114452745     -2.9792900406     -1.9984010502
C     -1.8438614918     -2.088014577     0.2272639101
C     -1.1894002684     -2.7589427365     -0.8227393407
C     -3.0075088581     0.069876181     0.8305527707
C     -2.832510672     -1.0530285348     -0.1165774218
C     -2.136826822     2.383891596     0.7699333491
C     -3.0984027826     1.4197341038     0.3191263335
C     -0.0223252901     2.9497517759     -0.472079357
C     -1.4703691264     2.91322298     -0.4361511636
C     1.9558713767     1.8767364549     -1.4426098993
C     2.4060980707     0.6738912197     -2.1368207729
C     0.6559839478     2.39652445     -1.6574388523
C     1.6033094202     -1.2718115619     -3.3124206392
C     1.6629258684     0.1350486295     -3.182341843
C     -0.2281612635     -2.6562361557     -2.9549350293
C     -1.460398736     -2.4906145645     -2.2212417455
C     0.2455571246     -1.6030255263     -3.7441553065
C     -3.0774985338     -0.7996574999     -1.4951330037
C     -2.3172560603     -1.4445883572     -2.5430485583
C     -3.2677050525     1.6324529643     -1.0754001647
C     -2.2018218372     2.5348316984     -1.5472641639
C     -3.2855822042     0.5615041189     -1.9283145428
C     -0.145700653     1.8283482534     -2.7807153719
C     0.3571055087     0.7162128955     -3.514426746
C     -0.500327924     -0.3986913725     -3.9151114787
C     -1.8464343395     -0.3927094169     -3.4879877572
C     -1.584582104     1.9366118775     -2.7114402505
C     -2.3951317507     0.8251073919     -3.0783928141


