58

 C     1.2736891601     -0.0858810552     3.787117843
C     2.4462427189     -0.2537642432     3.0811766582
C     2.3241634314     -1.5294874869     2.3587063011
C     0.3925553099     -1.2596105907     3.5460484344
C     1.0008544691     -2.0990042004     2.5991985025
C     -0.9316517244     -0.7914578895     3.384573492
C     0.4773418224     1.0920627907     3.6572115915
C     -0.9106958541     0.663578567     3.5762366057
C     0.9293167327     2.1049106594     2.7797926589
C     2.8774361032     0.7255917536     2.1284087659
C     2.1354210994     1.9034714529     1.994029649
C     2.8318191312     -1.395998263     1.08665346
C     3.2433842255     0.0104129485     0.9035531655
C     2.2489907206     -2.1494630299     0.0055916818
C     0.2540302276     -2.6395605321     1.4997289102
C     0.9728289726     -2.8517411067     0.2371395057
C     -1.7732584882     -1.4032719735     2.4008278147
C     -1.1928743962     -2.4090545748     1.4984794802
C     -2.8674093612     -0.5947957153     1.9186697769
C     -1.8339812176     1.4400759704     2.8809919763
C     -2.8900569847     0.7835136908     2.2092992597
C     -0.0195100567     2.7861237164     1.9189105108
C     -1.3710649479     2.5196544607     1.99804722
C     1.9197879834     2.46798783     0.6623941197
C     0.601023527     3.0117791191     0.6089039215
C     3.18508258     0.5965694856     -0.3560478859
C     2.5357107833     1.9206324009     -0.497495045
C     2.5891444709     -1.7026856943     -1.2741769439
C     3.1082482975     -0.338258406     -1.470784309
C     1.7705464276     -2.002377429     -2.442075187
C     0.2114576369     -3.1384689098     -0.9231708321
C     0.5727452924     -2.6630322025     -2.2557169389
C     -1.8976827951     -2.6788288662     0.2821511101
C     -1.2029164986     -3.13072681     -0.8451132885
C     -3.3889081653     -0.7506103486     0.5539635408
C     -2.9554726475     -1.7905770275     -0.220358354
C     -3.1776523755     1.5065235507     0.9644887321
C     -2.18475577     2.4852689844     0.7746544153
C     -3.5355414571     0.5837422429     -0.0398238164
C     -0.1591319742     2.98821268     -0.5972195284
C     -1.5908542463     2.6523300082     -0.5273581032
C     1.9193700283     2.2333148878     -1.7426672667
C     0.5615899213     2.6907538548     -1.7839746836
C     2.7308282053     0.0954447961     -2.7434552614
C     1.8555765783     -0.9017584737     -3.3546376744
C     2.1275040688     1.3772621308     -2.8952452432
C     -0.0817922943     1.9960929093     -2.9127509622
C     0.6797113172     -0.2375209273     -3.7704397153
C     0.9056790861     1.1948909728     -3.5723198629
C     -0.6434068808     -2.117907261     -2.8798227188
C     -1.7252126035     -2.4963388286     -2.0556386181
C     -2.7439323927     -1.606132103     -1.6706070803
C     -0.6202913071     -0.8054910897     -3.483336655
C     -3.0799363676     0.8175483481     -1.3421723356
C     -2.1543244507     1.8848197879     -1.5908263194
C     -1.3534507524     1.4928652447     -2.7484088423
C     -2.7267043196     -0.3009902016     -2.2099810562
C     -1.6696099793     0.0993599653     -3.0913246057


