58

 C     1.4346354553     -0.0529170462     4.3348345365
C     0.7058422643     -1.3254851413     4.2122842932
C     1.5660276079     -2.2740009361     3.6504982548
C     2.5867289299     -0.1844899385     3.4494304802
C     2.7681556597     -1.5222099371     3.1237678233
C     2.4809110487     0.7997516867     2.3643415611
C     0.6246032439     0.903114793     3.7440159807
C     1.2963055738     1.5650862287     2.6289732989
C     -0.5770674024     -1.0874324455     3.5774730213
C     -0.6820182375     0.3438635148     3.428663484
C     -1.0410710356     -1.8905283314     2.4629612515
C     1.118420693     -3.0902692326     2.6092355713
C     -0.1827900124     -2.9341607407     1.9973303078
C     2.9758103301     -1.9070520909     1.7657601371
C     2.0747196026     -3.0039703583     1.530270455
C     2.7935005084     0.4866396794     1.0151792783
C     3.1164854197     -0.9182604336     0.7165943464
C     2.2088101616     1.3409144037     -0.026298495
C     0.5408710201     2.1540687011     1.6139443017
C     1.1210130934     2.2478051127     0.2872530147
C     -1.4591513337     0.943033376     2.4467534607
C     -0.9121252312     2.0958123696     1.7328970557
C     -1.9556676989     -1.2859450113     1.5011448266
C     -2.4031244008     0.0941879641     1.7234873995
C     -2.0029871999     -1.758118544     0.1316933762
C     -0.0315000871     -3.1235267302     0.5545675124
C     1.4019351514     -3.1804072519     0.3014216305
C     -0.8881379815     -2.5351522653     -0.3859617405
C     2.7928251448     -1.3573527699     -0.5939144364
C     1.8869227116     -2.4937827022     -0.7878097654
C     2.3697341366     0.9594930286     -1.4309769678
C     2.5543490645     -0.4663542285     -1.6626278602
C     1.7499197638     1.6895769854     -2.4557740403
C     0.3280352506     2.8598676336     -0.7873708485
C     0.7416862349     2.7054372438     -2.1407177905
C     -1.6743824642     2.6201993842     0.6863476379
C     -1.0690995391     3.0986518712     -0.5551771554
C     -3.2316154744     0.7123866908     0.7860675059
C     -2.9457479006     2.0728627987     0.3911718597
C     -2.8110909927     -1.0555610628     -0.8255404655
C     -3.5828241037     0.0353848415     -0.4279723288
C     -2.3980043598     -0.8755812753     -2.239452248
C     -0.3677818417     -2.2051541     -1.7464760501
C     1.0295683065     -2.195130914     -1.8908297035
C     1.6747659067     -1.1147090369     -2.6220372879
C     -1.1456533951     -1.3610384882     -2.6806418559
C     1.3013346254     1.0214247359     -3.6741297234
C     0.9950152459     -0.3922004435     -3.551408284
C     -0.4556599482     -0.5913274307     -3.6937949235
C     -0.2297405593     2.6891972743     -3.1965247151
C     0.1367342717     1.6421843768     -4.1072781445
C     -0.9615027791     0.6742887675     -4.1065065758
C     -2.0463247443     2.9381547369     -1.6131194704
C     -3.1770552758     2.2376242067     -1.0256949195
C     -3.5598993273     1.0016086355     -1.5287787622
C     -2.8818136461     0.4215904782     -2.661320232
C     -1.6205235975     2.569893463     -2.8903407755
C     -2.0813058368     1.2580139046     -3.4598881072


