58

 C     1.09139629     -0.0670350211     4.204799649
C     2.284048045     -0.3588451083     3.6348268349
C     2.1974125158     -1.749403225     3.0784385356
C     0.2163324389     -1.2797963123     4.0876427434
C     0.8279142062     -2.1720998739     3.125676678
C     -1.0637961523     -0.852011382     3.9666826714
C     0.2933685267     1.0905003449     3.8164931772
C     -1.0477714612     0.6524142296     3.960701488
C     0.683522451     1.8624980792     2.6496606441
C     2.8423368541     0.4998694161     2.6140651255
C     2.0350203171     1.6065616735     2.1042875617
C     2.8985783713     -1.7344527573     1.9072991919
C     3.4619935957     -0.3774213328     1.6844335242
C     2.3038296208     -2.151593329     0.6809241908
C     0.1307210308     -2.4618621007     1.894406598
C     0.9200327408     -2.5140313962     0.6443682048
C     -1.882661701     -1.2821993254     2.8613091946
C     -1.2872551557     -2.0567281242     1.7842297982
C     -2.0193082391     1.0476909528     3.0746666379
C     -2.689847787     -0.1502131623     2.5347802329
C     -0.3797801682     2.3078846331     1.7189311177
C     -1.7229256792     1.9075026457     1.9813448118
C     -0.0814255274     2.6539931869     0.3068408806
C     2.271342284     1.9606023792     0.7547179042
C     1.2649819802     2.5957259808     -0.0830237508
C     3.4529558838     -0.1420432026     0.3123092983
C     2.8449518817     -1.2920451659     -0.3584132201
C     3.0570075647     1.1316426257     -0.1318080151
C     2.2207846126     -1.1610242824     -1.589370544
C     0.2753895825     -2.4503950248     -0.6626896808
C     1.0416101996     -1.9912139727     -1.8243995126
C     -1.8828259664     -1.9375523068     0.4680491127
C     -1.1721014843     -2.390296927     -0.7244684516
C     -3.0432700749     0.1146714019     1.2332815249
C     -2.5544556388     1.4558171703     0.8747050682
C     -2.8771706643     -0.887686539     0.2465115835
C     -1.115083236     2.5512620906     -0.769038111
C     -2.3469802949     1.8286708181     -0.4517454267
C     -0.7441670738     2.5549490551     -2.1289512987
C     1.6023090955     2.3449585837     -1.463934852
C     2.5858690823     1.2727305     -1.4651019247
C     2.3268609181     0.137414305     -2.2847017773
C     0.6583111672     2.4513334882     -2.4656541983
C     1.5242301154     0.3566811932     -3.444433135
C     0.7658104505     1.5748215441     -3.5864620363
C     0.3795586797     -1.8055621719     -3.0723672601
C     0.6844854106     -0.6736022751     -3.9259093073
C     -1.7893617201     -2.1767979211     -2.0033224873
C     -1.0154758601     -1.9989160783     -3.158001466
C     -3.1717579877     -0.4184296603     -1.0546221453
C     -2.9484712298     0.9837730403     -1.4362308616
C     -2.8600417725     -1.1950232719     -2.1532943498
C     -1.4936833534     1.8234314273     -3.1936248319
C     -0.5359688449     1.293922784     -4.1273534347
C     -0.5468095825     -0.0977587063     -4.4755712071
C     -1.5990069421     -0.8939220262     -4.0216217522
C     -2.5958391146     1.0159436424     -2.82300504
C     -2.6757232303     -0.3573052191     -3.3272638956


