58

 C     1.5240812014     0.0387164654     4.0334412352
C     0.6977023852     -1.096933513     3.8727810558
C     1.2082613524     -1.9575245356     2.8285516485
C     2.5034312081     -0.0117282427     3.0103256107
C     2.3230063752     -1.2360137953     2.2382637356
C     2.3980523115     1.1618232084     2.2307026843
C     0.6507159007     1.1639542605     3.7360851195
C     1.1843557378     1.8936015776     2.6722192976
C     -0.6959879297     -0.7332133003     3.8864277584
C     -0.7173078189     0.7170479402     3.6252537897
C     -1.6005229631     -1.5427433802     3.2128051086
C     0.2832251313     -2.6625588063     2.0041063978
C     -1.1249612036     -2.5584508766     2.2523127673
C     0.6738775366     -2.8802438001     0.6525076743
C     2.5561288815     -1.2575986312     0.827481999
C     1.8302363375     -2.2282370677     0.0954405931
C     2.7845683694     1.1997122338     0.8732989991
C     2.9508866885     -0.0278320189     0.1037228561
C     2.3321276639     2.3635396618     0.1957945595
C     0.3338518298     2.4869354482     1.6746422216
C     0.9961107591     2.9129505746     0.5228577983
C     -1.6071267321     1.2556337791     2.6352460469
C     -1.0739073817     2.1334210439     1.5811122479
C     -2.7790446085     -0.9555088939     2.6918633226
C     -2.7501158787     0.4281653781     2.328015257
C     -2.0673103015     -2.5934251563     1.1657735523
C     -3.1332000261     -1.6800396865     1.4882056728
C     -0.2828190333     -3.0303173405     -0.4136356909
C     -1.6573430524     -2.7373612789     -0.2078901536
C     1.6723218488     -2.1392839052     -1.3416475539
C     0.3836725118     -2.7173469942     -1.6521680684
C     2.8768691431     0.0330554321     -1.3449670858
C     2.2353167042     -1.084966202     -2.0978989219
C     2.5259640925     2.4714758255     -1.1642560354
C     2.8434661788     1.3397875917     -1.9636088685
C     0.3322284824     3.1664217713     -0.7209861933
C     1.3343747405     3.1358853827     -1.7442911386
C     -1.683978511     2.1579481214     0.2411769064
C     -0.9517147783     2.5869944197     -0.9448876089
C     -3.3932851109     0.5588914433     1.0506061953
C     -3.6184027431     -0.7888009626     0.5313554072
C     -2.8163371629     1.303457358     0.0247031476
C     -2.3346534981     -1.9191793159     -1.2493628169
C     -3.1946698847     -0.8481212066     -0.8110862101
C     -2.8719895279     0.5016586954     -1.2098032264
C     -0.3433763019     -2.2199968279     -2.7272562437
C     -1.6734154655     -1.6715690027     -2.4610287978
C     1.5903248333     -0.8239628526     -3.3797863519
C     0.3242977328     -1.3809724947     -3.6414051064
C     2.1220139569     1.5572113613     -3.2116749418
C     1.0922960477     2.6128985791     -2.9738049151
C     1.523090092     0.54383707     -3.8896358868
C     -1.2063909593     1.9745362621     -2.2916544117
C     -2.0799846115     0.7827359508     -2.3225240155
C     -1.7211384397     -0.3694097446     -3.1159478895
C     -0.6065521711     -0.2746284767     -3.9841255173
C     -0.2010997752     2.053567347     -3.297392914
C     0.0997798058     0.8921041364     -4.124354122


