58

 C     1.3732601187     0.030925087     3.5285678507
C     2.5735989703     -0.2524746307     2.8808636034
C     2.5446960621     -1.6529016745     2.4160599361
C     0.5264455047     -1.1436677625     3.3470107796
C     1.2388430326     -2.1509269268     2.5909401163
C     -0.7700337229     -0.7431325842     3.0396539549
C     0.608944186     1.1845291552     3.2298749374
C     -0.7812588487     0.7184451286     3.1943795469
C     1.0416817603     2.125304915     2.2523073451
C     2.9877057838     0.5485937993     1.8033394784
C     2.2843012772     1.7769631954     1.5081719928
C     3.1784476864     -1.7235450088     1.1541420024
C     3.4512466109     -0.3591934648     0.730161659
C     2.7007539679     -2.6732581174     0.2430870519
C     0.5520517872     -2.8351463812     1.5255292063
C     1.3730915249     -3.2653266138     0.4499765107
C     -1.5376094597     -1.3779629803     1.9975936761
C     -0.8901707472     -2.4986341009     1.2741513517
C     -2.6263498484     -0.6065793742     1.4074514583
C     -1.7417559638     1.4409081079     2.5915123473
C     -2.8036856641     0.7689587485     1.848117667
C     -0.001052717     2.9539990204     1.6028492788
C     -1.3954325063     2.6972507868     1.9200776177
C     0.2382851756     3.468623495     0.2974322076
C     2.3930245515     2.2237802023     0.1678698368
C     1.4661992959     3.1491653185     -0.3720514538
C     3.2723999051     -0.0078246645     -0.630406806
C     2.7879949039     1.3004510122     -0.9031486111
C     2.7773935483     -2.3615227358     -1.1444543339
C     2.9510963061     -1.0348171213     -1.5888669883
C     0.790941266     -3.5073516311     -0.8670989499
C     1.6613267473     -2.9577870311     -1.8459967891
C     -1.4356302151     -2.8580670281     0.0326368729
C     -0.5915168645     -3.3851781572     -1.0469676349
C     -3.0900558349     -0.9316203735     0.064293529
C     -2.5122771738     -2.0714154297     -0.5734115927
C     -3.5302166344     0.1278175894     -0.8134869737
C     -3.3352820731     1.754971268     1.0024739631
C     -2.4294276011     2.9425165948     1.0097053581
C     -3.6522326167     1.4541958298     -0.3227268277
C     -0.8087283785     3.4806614542     -0.716960427
C     -2.139476634     3.2461205643     -0.3557429427
C     -2.9212464324     2.3711256909     -1.1814980348
C     1.1465769214     2.7199940974     -1.684016221
C     1.8940495979     1.5351912009     -1.9885166758
C     -0.2551460144     2.8093204583     -1.884165654
C     1.9240152556     -0.7923674928     -2.6221280995
C     1.1791590623     -2.0221395348     -2.8048193619
C     1.2927802008     0.4645681579     -2.7345055679
C     -1.0501374603     -2.7760994664     -2.2443800695
C     -2.2597320222     -2.0422785546     -1.9613984804
C     -0.2000324168     -1.9521869728     -3.0354334227
C     -2.8998436459     0.2550977125     -2.1171150439
C     -2.3330617137     1.5956208099     -2.2189879952
C     -0.950419754     1.7450610086     -2.559407528
C     -0.1728303929     0.554598605     -3.0256928515
C     -2.2270012645     -0.8061647552     -2.6654837958
C     -0.8686664093     -0.6551884649     -3.2013619834


