58

 C     1.6321044155     -0.0606007835     4.3098803237
C     0.7587272656     -1.2234792264     4.3127192529
C     1.3167714921     -2.1711981618     3.4407097509
C     2.6637973001     -0.2454404768     3.3079875507
C     2.5029496583     -1.5449493545     2.7988705732
C     2.570678282     0.8369877752     2.3681095963
C     0.8667913234     1.0547573733     3.9465319787
C     1.4467735687     1.6809066622     2.7723582399
C     -0.6039462055     -0.7752169777     4.0963596757
C     -0.5405922247     0.690587335     3.9232139188
C     -1.4241000235     -1.4976821791     3.2223628333
C     0.5491774126     -2.7550002511     2.3958845129
C     -0.8434898676     -2.5282211284     2.3549361484
C     2.4531143285     -1.8020282355     1.4097019835
C     1.2785177932     -2.6537544797     1.1373426357
C     2.7452248002     0.6046119684     0.9906829
C     2.7415916318     -0.7730998759     0.4857560972
C     2.2520398341     1.6094170019     0.076517724
C     0.6181081191     2.2905312794     1.7943073114
C     1.1046229171     2.4086197201     0.4296700989
C     -1.3538586047     1.3094482983     2.9936312648
C     -0.8017063809     2.2196776445     1.9823592614
C     -2.428071446     -0.817418779     2.4237303129
C     -2.4287674636     0.5797564918     2.3461446692
C     -1.5154572982     -2.5099495781     1.0919457345
C     -2.6131283662     -1.5608395037     1.1881738437
C     0.6401323833     -2.6287310798     -0.1027083949
C     -0.8264902857     -2.654021884     -0.1495625156
C     2.4015010212     -1.0250227     -0.901728662
C     1.3719957205     -2.0222715478     -1.2263647547
C     2.5490205128     1.3889822056     -1.292534457
C     2.6339523972     0.0087232984     -1.8158008557
C     1.9657420242     2.1758407419     -2.2689217901
C     0.1986647137     2.7958935216     -0.6471846298
C     0.7193951659     2.8267601638     -1.9807098581
C     -1.6636130279     2.2230563807     0.851745117
C     -2.7043745574     1.2291965035     1.0840486877
C     -1.2237339635     2.541324532     -0.4696644626
C     -3.0800617969     -0.9429550123     0.0500552906
C     -3.1737844528     0.5098065493     0.0028901307
C     -1.486160113     -2.2158805591     -1.3636518064
C     -2.6388579178     -1.3753255817     -1.2495682479
C     0.7612592669     -1.9522201998     -2.4808972492
C     -0.7062429136     -2.0811023131     -2.5711080909
C     2.1056639033     0.0002124507     -3.1553598882
C     1.8013805312     1.372683678     -3.4999259889
C     1.1821865152     -1.0150487672     -3.5117931411
C     -0.1241077492     2.5773072074     -3.1050510178
C     0.5958159753     1.7135275798     -4.0871577215
C     -1.9975609886     2.0159168562     -1.600863224
C     -2.8838983434     0.9318536763     -1.3402333261
C     -2.7860490967     -0.2662941724     -2.1584476707
C     -1.4262239999     2.0662943721     -2.9351500369
C     -1.1453925705     -1.3033991718     -3.6497005909
C     0.0117532539     -0.6572836984     -4.2719153969
C     -0.303237663     0.6959836762     -4.5013367078
C     -2.1232488364     -0.263242376     -3.3924683387
C     -1.5932973498     0.9630131309     -3.8588185942


