58

 C     1.4950227319     0.0740558529     4.1840355199
C     0.7099760151     -1.1139064657     3.9621646221
C     1.487815874     -2.0620020382     3.2792974799
C     2.6709346205     -0.0596929948     3.3264567871
C     2.6901880504     -1.3478172673     2.7809198476
C     2.7262110434     1.0342321375     2.4018053597
C     0.7618632456     1.127582744     3.6094788134
C     1.5563408811     1.8519708208     2.6594242786
C     -0.5961582315     -0.7503627376     3.3904869785
C     -0.5497384953     0.6734543442     3.1532441017
C     -1.2436737372     -1.5803140542     2.4689088238
C     0.9179068217     -2.7558461838     2.2056855816
C     -0.4977396455     -2.7600344233     2.0018292442
C     2.7438690882     -1.5638414966     1.3681995482
C     1.7620627209     -2.5581796823     1.0282291791
C     3.0828143114     0.8383191595     1.0302096154
C     2.9771681186     -0.4972493172     0.4396746972
C     2.7975676078     1.9521733706     0.2016490417
C     0.9274445273     2.6027665994     1.6436271361
C     1.739278965     2.9088307271     0.5322025343
C     -1.1930839774     1.2731951621     2.0453871
C     -0.5324180983     2.4397308619     1.4333422647
C     -2.2019974264     -0.9594778953     1.5286354054
C     -2.1385286522     0.479175124     1.2761732935
C     -2.7725680497     -1.7995111408     0.5399261447
C     -0.9009192632     -3.3627543819     0.8116743997
C     -2.2209329014     -3.1362350939     0.3018605856
C     1.2275880382     -2.7107443179     -0.2738790374
C     0.0057095328     -3.4432628618     -0.3268915021
C     2.4493730541     -0.6341317798     -0.9262943714
C     1.5364539056     -1.716818483     -1.2935418516
C     2.7459187268     1.7951919073     -1.1883791162
C     2.4451859413     0.5311901953     -1.7510076854
C     1.1730333345     3.4183166464     -0.6927965653
C     1.844468203     2.7829196427     -1.7728615232
C     -1.0758445604     2.9604576871     0.2701074421
C     -0.2333954333     3.5706825668     -0.7734187613
C     -2.6686706923     1.0277879929     0.021709373
C     -2.2223952645     2.3258263382     -0.3751226939
C     -3.2092827857     -1.2724080496     -0.7334221385
C     -3.1477669362     0.1167175713     -1.0274813114
C     -2.2171826194     -3.3638728641     -1.0814741052
C     -0.8139783276     -3.3766261376     -1.4795353012
C     -2.7927842396     -2.2318830629     -1.7227301754
C     0.5813100246     -1.5258098773     -2.3892532996
C     -0.5727401745     -2.3716160239     -2.4501876436
C     -1.9064982366     -1.7744927591     -2.7519149032
C     1.4644318006     0.7520778184     -2.8169126205
C     1.1333399654     2.1905631894     -2.8330765503
C     0.4964289862     -0.2208862407     -3.0872229091
C     -0.8617179782     3.3328053302     -2.0066252814
C     -2.1712249539     2.689691769     -1.7570140435
C     -0.203913529     2.6064207858     -3.0522670379
C     -2.8673548721     0.4512179863     -2.402674938
C     -2.0060072572     -0.4731810753     -3.1350702676
C     -0.8111521066     0.2633225512     -3.5507268949
C     -2.3889257169     1.7334262442     -2.7299262574
C     -1.131112004     1.6188555592     -3.514636402


