58

 C     1.6072685713     0.0105504949     3.9651123118
C     0.7702703316     -1.1432561591     3.9346128277
C     1.2428579943     -2.0395888527     2.9110118203
C     2.5199159022     -0.0605414229     2.8980025286
C     2.3487188979     -1.3485273005     2.2591613507
C     2.3308013235     1.1019647496     2.0549339804
C     0.7521874068     1.1575878147     3.7488810475
C     1.2289445926     1.8843195124     2.6218700902
C     -0.6142667954     -0.7339685205     3.9310017924
C     -0.6182534145     0.7504429684     3.8146546583
C     -1.5436344493     -1.4747987762     3.2127063424
C     0.3070324438     -2.7943809883     2.1396511058
C     -1.1065345087     -2.5954323115     2.3855520305
C     0.6893903247     -3.0998269185     0.7955678996
C     2.5742198441     -1.4700219804     0.8785573163
C     1.850181441     -2.5097835381     0.2201355394
C     2.5441309878     1.0529797771     0.6629686746
C     2.8946417054     -0.2492741466     0.0893040399
C     1.8955339649     2.053397391     -0.1978161352
C     0.3244435502     2.5249449974     1.7393532171
C     0.7616175371     2.772107244     0.3650817258
C     -1.5220143725     1.3664564004     2.9508958353
C     -1.0750528384     2.3558905018     2.0137190934
C     -2.6193547321     -0.7936423916     2.4613162308
C     -2.577310703     0.5785113643     2.287958993
C     -2.0147291863     -2.6855867087     1.2944309893
C     -2.928625246     -1.589705068     1.3140220586
C     -0.2870625015     -3.217568692     -0.3006953233
C     -1.6189636956     -2.9124691059     -0.0619330446
C     1.686188351     -2.4762366336     -1.2191109358
C     0.3054863843     -2.8213976561     -1.5359743418
C     2.9221545398     -0.3605776863     -1.2979880602
C     2.3887120041     -1.5547334913     -1.952844986
C     2.053944431     1.9540016355     -1.6558087666
C     2.6454481759     0.7535313657     -2.1895844604
C     1.1049486599     2.6435909498     -2.5147421047
C     -0.2433086251     3.233741184     -0.5435586663
C     -0.0254282939     3.2245505351     -1.9198193778
C     -1.9954327164     2.3090085824     0.9000709409
C     -2.8262000879     1.1501861008     0.9755200014
C     -1.6317977371     2.8142872217     -0.3250036563
C     -3.0332061537     -1.057736561     -0.0058341105
C     -2.2777089918     -1.9223703256     -0.9031470366
C     -3.0119860194     0.3480830391     -0.2112101604
C     -0.4010426443     -2.0409145475     -2.4897385274
C     -1.6881466016     -1.43550442     -2.0892581743
C     1.8282755867     -1.1411048097     -3.1949216557
C     2.1903790325     0.2047905313     -3.4548183845
C     0.4113012304     -1.3536362501     -3.4674961385
C     0.5981370812     1.9870414026     -3.7254391353
C     1.0739749276     0.7827990933     -4.1292785473
C     -0.06804691     -0.1923144244     -4.077186716
C     -1.2594610958     2.6757208461     -2.5684907121
C     -2.1328562696     2.2223444985     -1.5388144432
C     -2.5719874542     0.8581737841     -1.510856614
C     -2.0165868613     -0.0640178218     -2.5263273087
C     -0.8952442402     1.8849701173     -3.6090312404
C     -1.2468140776     0.4829634054     -3.609285678


