58

 C     1.5272947667     0.1094367719     4.3536690227
C     0.737268412     -1.0624113814     4.2034822856
C     1.4439953716     -2.0380048355     3.436162052
C     2.6372239428     -0.0329293329     3.4182997197
C     2.5677898508     -1.3301304121     2.8538081103
C     2.5698388231     1.0194445815     2.4643403399
C     0.7228777294     1.163513989     3.8121670031
C     1.4295174733     1.8661500254     2.8012924544
C     -0.6193225191     -0.6967578804     3.7709372778
C     -0.6193143688     0.7393367477     3.4866775861
C     -1.2842750548     -1.5477965975     2.9102106412
C     0.7940837277     -2.7551273837     2.398953669
C     -0.5959056409     -2.6670134959     2.2692112574
C     2.5729289133     -1.5864244674     1.4242374604
C     1.5773350105     -2.5844225913     1.1597088088
C     2.8677841106     0.8055848757     1.0590008834
C     2.7916772151     -0.5382045372     0.4798826402
C     2.5488204125     1.8729067986     0.2380584284
C     0.739190125     2.5700930088     1.7976987344
C     1.5716619454     2.8916150702     0.6727840389
C     -1.2963537789     1.2737907849     2.3493475525
C     -0.6759614416     2.3633342264     1.5773064572
C     -2.1998488722     -1.0093923603     1.9251258947
C     -2.2380137816     0.3888441765     1.6536663491
C     -1.188440563     -2.8415996964     0.9783495197
C     -2.3045155918     -1.9442737695     0.8390823801
C     1.0083779894     -2.7148931983     -0.1116280135
C     -0.4036669347     -3.1196288299     -0.1831899732
C     2.3159486278     -0.7018622655     -0.8850574558
C     1.5503349304     -1.8964647954     -1.1983045387
C     2.4451227187     1.7499546727     -1.2003296762
C     2.2187944093     0.4719996552     -1.7794656496
C     1.040006324     3.4558559172     -0.4543091585
C     1.71518684     2.9048132664     -1.6478724752
C     -1.2262941848     2.7633355356     0.2791762972
C     -0.3886215057     3.4593260491     -0.6729009692
C     -2.7218047568     0.7570865683     0.3617377002
C     -2.2886320046     1.9856402318     -0.2834739648
C     -2.7974254537     -1.5791506567     -0.4461972005
C     -3.1218943865     -0.1958370659     -0.6309227416
C     -1.0603722096     -3.0353845797     -1.4195017884
C     -2.3321607387     -2.3356658487     -1.5597035139
C     0.8901878637     -1.9909445005     -2.4570967332
C     -0.2890361925     -2.7754406401     -2.6057455772
C     1.3556009887     0.4182665462     -2.982495465
C     0.8030939357     -0.8304543925     -3.3637687792
C     0.7649603819     2.7872541334     -2.6247895341
C     -0.5426702777     3.2121224077     -2.0671375538
C     0.5836901545     1.5863301187     -3.359532316
C     -2.4389181448     1.7898866666     -1.6953995893
C     -2.9479437618     0.4315165107     -1.9263670945
C     -1.5107203928     2.3454271239     -2.5919025253
C     -0.8516693147     1.4441850252     -3.5683140879
C     -2.3147713812     -1.7295160443     -2.8644400594
C     -1.1316570277     -2.0966135488     -3.5422649568
C     -0.4801390776     -0.8968514726     -3.982613595
C     -2.5293979335     -0.3010659657     -3.0302737038
C     -1.3908456822     0.2072110606     -3.8393758847


