58

 C     1.62727001     0.0208612087     3.8962096648
C     0.8285294778     -1.1241774238     3.7291268487
C     1.4146304308     -2.0289990919     2.774381888
C     2.6393040081     -0.0327137854     2.8859431367
C     2.5074844002     -1.2947904616     2.1725293973
C     2.5394695126     1.127304966     2.0828906071
C     0.7665981447     1.1309048964     3.5401559647
C     1.379713031     1.9110881126     2.5384912641
C     -0.5682531131     -0.7450589987     3.5581261863
C     -0.5869950682     0.7140989135     3.3379800926
C     -1.369486071     -1.5570187674     2.7990228169
C     0.5791582906     -2.8784115131     1.9888452763
C     -0.8484911819     -2.7334679601     2.108342484
C     1.0965199497     -3.263322153     0.7108963754
C     2.7747739491     -1.3915363497     0.7614692294
C     2.1787791206     -2.481824849     0.0931730942
C     2.8940301602     1.1268932616     0.690484576
C     3.0666267207     -0.1528514129     -0.0036137318
C     2.474431817     2.2571854418     -0.0258849372
C     0.5962693489     2.6304081879     1.614545123
C     1.3369081609     3.0788707319     0.4632044114
C     -1.383336623     1.2920350834     2.3104114815
C     -0.8266853285     2.3817737065     1.4987274454
C     -2.4254350781     -0.9656215163     1.9858534796
C     -2.4542855445     0.4478149396     1.7466971759
C     -1.7064811944     -2.9479320734     0.9776729979
C     -2.7347611094     -1.9066964778     0.9518516644
C     0.2088123002     -3.6215895292     -0.322864009
C     -1.1866983064     -3.4071348234     -0.2439900432
C     1.9138209399     -2.4230652874     -1.3381768742
C     0.6956016697     -3.100482999     -1.5945012596
C     2.8343138932     -0.1465165808     -1.3991000783
C     2.1618879562     -1.2540085825     -2.0372393244
C     2.4060270613     2.2816891831     -1.4674564496
C     2.470613189     1.0536994841     -2.127016952
C     0.7031924401     3.64945694     -0.6186471348
C     1.3902643537     3.2299761998     -1.8445490841
C     -1.4809895606     2.7760474779     0.2341792498
C     -0.7253495993     3.4748903915     -0.7902350542
C     -3.0898468408     0.8680561278     0.544814223
C     -2.5878110477     2.0145716003     -0.2185956073
C     -3.2505111994     -1.4581736799     -0.267169036
C     -3.562008497     -0.0918155094     -0.3779503925
C     -1.5784495994     -2.7543191865     -1.5133210764
C     -0.3581368968     -2.5016245142     -2.2984330338
C     -2.5949128125     -1.8377546731     -1.5316524473
C     1.1710998249     -0.7218869767     -2.9595576114
C     1.4283993193     0.6924093599     -3.0977546427
C     -0.1532477766     -1.2501944265     -2.9929671367
C     0.4127862187     2.8811249071     -2.7524016645
C     -0.9045200351     3.1483550672     -2.1671056811
C     0.3738238456     1.5683482783     -3.3576769224
C     -2.7427239069     1.7018639485     -1.6302096698
C     -3.2125517173     0.373598371     -1.715483895
C     -2.5006430878     -0.6352593544     -2.3838190762
C     -1.2795174056     -0.3036809662     -3.092008173
C     -1.7608394738     2.1012499137     -2.5496079335
C     -0.99817148     1.077353213     -3.2770372223


