58

 C     1.159644397     0.0283403579     3.8814048203
C     2.2659344135     -0.319899596     3.1718671532
C     2.1986075723     -1.7545036803     2.8181233107
C     0.3000369432     -1.1988294526     3.9486591063
C     0.8668290745     -2.2024560264     3.0858586603
C     -0.9753294171     -0.7775024763     3.7374306617
C     0.3473958082     1.1520935971     3.4648644767
C     -0.9862317852     0.7037822247     3.5789175403
C     0.7014127393     1.9255100357     2.297829778
C     2.6602563141     0.4072318229     1.9874310329
C     1.9257668734     1.5606374062     1.5625538965
C     2.7716436604     -1.897487895     1.5626546123
C     3.1229050737     -0.5601786253     1.0331304062
C     2.1836594385     -2.8282725688     0.6846441487
C     0.0611498866     -2.7428134799     1.988262638
C     0.7858273976     -3.1688777342     0.8518271165
C     -1.8292316063     -1.3092454084     2.7099342756
C     -1.3225023628     -2.2400027345     1.7614531789
C     -2.0069092334     1.0563854853     2.6900390752
C     -2.6475934784     -0.1948605164     2.2720740597
C     -0.3985595235     2.5453609125     1.5583034015
C     -1.7795342464     2.1012366754     1.7456936358
C     -0.0785775614     3.1366132181     0.3081068316
C     2.0911724268     1.9514585307     0.1717438163
C     1.1930558878     2.9504389872     -0.3165361308
C     3.0960880743     -0.2924611957     -0.3608297293
C     2.7126453354     1.0385564694     -0.7940624668
C     2.3998636346     -2.6331334008     -0.6921106784
C     2.8785880982     -1.4242841965     -1.2393713507
C     0.1883900762     -3.2290605791     -0.5006843694
C     1.2280281657     -3.056789268     -1.4442846652
C     -1.889557006     -2.1989431077     0.382073699
C     -1.0960505023     -2.6743438634     -0.7617932819
C     -3.2823012827     -0.2483129401     1.0561258562
C     -2.9275089394     -1.2768940878     0.0989740204
C     -2.6773549551     2.1193898102     0.6162086219
C     -3.449920306     0.9769948941     0.3449926445
C     -1.0679333577     3.296479713     -0.78990703
C     -2.2846187109     2.6518438872     -0.6747944383
C     1.003841346     3.1479356392     -1.7311986085
C     -0.384627904     3.2888287691     -2.0340725
C     2.3652863473     1.188251421     -2.1883517043
C     1.5845187254     2.2607796713     -2.6474530634
C     2.18546372     -1.24565721     -2.5122523058
C     1.1026608797     -2.2383566322     -2.5847549474
C     1.9717307256     0.0186976413     -2.984418213
C     -1.2828179353     -2.0728816835     -2.06151426
C     -0.172211728     -1.8080250842     -2.9545370001
C     -3.0891677598     -0.6645592165     -1.2272808298
C     -3.4373746811     0.7049534106     -1.0821048247
C     -2.7233275811     1.7248607974     -1.7413740652
C     -2.2243505759     -1.01091228     -2.2647449437
C     -0.7091830623     2.2955467345     -3.0450691439
C     0.5190529104     1.7625958725     -3.5261305945
C     0.7136333301     0.3717936204     -3.6827883644
C     -0.3739872993     -0.5118897089     -3.5720167742
C     -1.8373191935     1.4064576022     -2.8316599467
C     -1.6510073308     0.0083794409     -3.1250862047


