58

 C     1.372987567     -0.1199876908     3.8017425205
C     2.5948201623     -0.3114560785     3.1640884318
C     2.5422837201     -1.609137291     2.4858363109
C     0.5489759958     -1.2974667504     3.5504892385
C     1.2388758179     -2.2022040287     2.700016206
C     -0.7645799795     -0.8862348354     3.2158122038
C     0.5658143732     1.0320110437     3.4883938381
C     -0.7690327246     0.5577001661     3.1282863367
C     1.1073964655     2.0791810176     2.7713447551
C     3.1112264497     0.675461557     2.2632196296
C     2.4653736818     1.9363980511     2.2231210693
C     3.0170348665     -1.3993364412     1.1862587278
C     3.4120993312     0.015002022     1.0020127961
C     2.3828497554     -2.0824408911     0.1336487929
C     0.5220845294     -2.8210750369     1.6139656144
C     1.21791068     -2.8929184552     0.3681957281
C     -1.5830128771     -1.6818305405     2.3622609248
C     -0.9434162391     -2.7301210041     1.5628087683
C     -2.701288037     -0.9818078976     1.8268410657
C     -1.5681896531     1.2101803625     2.1402907517
C     -2.6213922235     0.4397747657     1.6167238962
C     0.2916997636     2.7735634868     1.7487963774
C     -0.9958722606     2.3042321445     1.3372792382
C     2.4957591612     2.6410745091     1.0083155817
C     1.1844533974     3.2532884684     0.7778402589
C     3.2257564643     0.6502410787     -0.2505209142
C     2.8815224948     2.0547693925     -0.2133989655
C     2.3006281246     -1.5031266376     -1.1816917781
C     2.7238112105     -0.1490379303     -1.4095518186
C     0.5137001582     -2.9508980534     -0.8901959639
C     1.1702853001     -2.073085978     -1.8510889544
C     -1.5930234305     -3.0994888639     0.3389302917
C     -0.8439729563     -3.1196726716     -0.9162257767
C     -3.4178880442     -1.5136567699     0.7156157996
C     -2.8644929969     -2.5770806851     -0.0031078142
C     -3.1891759642     0.7308373634     0.3010856706
C     -3.7855602832     -0.4572096922     -0.1972495552
C     -1.4171184919     2.4836703342     -0.0591363921
C     -2.5379768818     1.6671957788     -0.5663604846
C     0.8826535111     3.2678680956     -0.5904612259
C     2.0145669118     2.6136103673     -1.2434004127
C     -0.4574195618     3.0223740109     -1.0254654642
C     2.1101349733     0.4900802854     -2.5016767461
C     1.7939627142     1.9257810149     -2.4208272394
C     0.4375734422     -1.3772006108     -2.8478867242
C     1.0346786176     -0.1310524051     -3.2655897065
C     -1.6392877201     -2.4741724247     -1.978180654
C     -2.9031238584     -2.2188447057     -1.4320861234
C     -3.4857416285     -0.9076092191     -1.535099454
C     -1.0253922063     -1.5570014451     -2.9144928952
C     -2.6247913479     1.3617595164     -1.9823185616
C     -2.9329103651     -0.013113096     -2.4273145497
C     -1.8244127218     -0.4180187493     -3.2768860424
C     -0.5709063199     2.6610970015     -2.4144826897
C     0.5766961269     2.1484240348     -3.0911469025
C     0.185328382     0.9009651498     -3.7612852428
C     -1.6716258695     1.8766078702     -2.8667476711
C     -1.1913395265     0.7831380305     -3.7193441315


