58

 C     1.3930428478     -0.1092296574     3.652050725
C     2.5905028793     -0.2786512706     2.9831312828
C     2.5140592645     -1.5537415254     2.2361078283
C     0.5478566589     -1.2822250535     3.3842649012
C     1.2045166856     -2.1224535492     2.4473188438
C     -0.7594026657     -0.8358343065     3.1393396551
C     0.5871769559     1.0615757027     3.4456827044
C     -0.7823612667     0.6215811494     3.2306550267
C     1.1000400212     2.0980312225     2.6532892006
C     3.0969671738     0.7310214998     2.1101110235
C     2.3917132903     1.9472202721     2.0030491304
C     3.0066780892     -1.350431433     0.9561471263
C     3.5074351207     0.0447181379     0.8845842746
C     2.386314678     -1.994603188     -0.1817736433
C     0.4940696767     -2.6979553393     1.3531449056
C     1.2137494522     -2.8384995651     0.0761542854
C     -1.5736127594     -1.5423996023     2.1964583652
C     -0.9603557606     -2.5586344547     1.3511902429
C     -2.7157773218     -0.8242747443     1.7399541107
C     -1.6887383758     1.3568267017     2.4419695818
C     -2.793739421     0.5954928257     1.9060162055
C     0.2117824068     2.7971278304     1.7343036313
C     -1.1880896948     2.5203019412     1.6782470029
C     2.2984325249     2.6043127673     0.7102025883
C     0.9543681306     3.1374029448     0.5491012863
C     3.4889839704     0.7025650906     -0.3154685078
C     2.9492889136     2.0603131175     -0.3938065462
C     2.5496726993     -1.3620349169     -1.4763183072
C     3.0978148802     -0.0224660611     -1.5371292414
C     1.6319172993     -1.7072988565     -2.5297807231
C     0.4567749739     -3.2756932782     -1.0470889491
C     0.7239619002     -2.7464905215     -2.3409078006
C     -1.6689389632     -2.9395519119     0.153600338
C     -0.9722854602     -3.4158507019     -0.9492266573
C     -3.3665431558     -1.1756276582     0.4661770861
C     -2.8220823942     -2.1636902691     -0.3291946116
C     -3.5289570303     1.1074667632     0.7813576337
C     -3.8378557222     0.0043757936     -0.1487384038
C     -1.8451507763     2.8362047067     0.4407504961
C     -3.0742692446     2.1844854431     0.0699368607
C     0.3080682043     3.1128506742     -0.7305588129
C     -1.0917077642     2.9782789178     -0.7568148954
C     2.3349189833     2.1614578146     -1.6886540318
C     2.5267441871     0.9115023907     -2.406590166
C     1.0222211752     2.5893942382     -1.8671947317
C     0.9337290851     -0.6625835195     -3.3084873785
C     1.3346185001     0.645047501     -3.1534749573
C     0.3577630653     1.6556256223     -2.820589316
C     -0.5654115454     -2.363180842     -2.9608953915
C     -1.5775563565     -2.7951524637     -2.1444878846
C     -2.6183624205     -1.9059931578     -1.7450089822
C     -0.4729501943     -0.9958274332     -3.3766788512
C     -3.4034725081     0.3751529     -1.4448188556
C     -3.0005160802     1.7712835549     -1.3441259943
C     -1.7747202541     2.1784322537     -1.8196038264
C     -1.0051567289     1.3330067386     -2.7214711862
C     -2.6541462209     -0.5538414543     -2.2482179468
C     -1.4730236084     -0.0488397509     -2.9871897431


