58

 C     1.3420797204     -0.0253242163     3.7131076164
C     2.5177614538     -0.2830415856     3.0362194064
C     2.5049376177     -1.6503615944     2.5287847485
C     0.4912683273     -1.2088221853     3.5135669265
C     1.1842684378     -2.194791777     2.7408248158
C     -0.774607567     -0.7822111423     3.1270726307
C     0.5649457086     1.1430124946     3.4057963386
C     -0.7679951467     0.6997398646     3.1033991673
C     1.1175471792     2.1452456387     2.5875278906
C     2.9642195588     0.6156520944     1.9845695561
C     2.3413439109     1.855889506     1.8522067251
C     2.9936329405     -1.5901370594     1.2110811669
C     3.2233129142     -0.1887762026     0.8152815548
C     2.5115251598     -2.485790434     0.2769710996
C     0.4967148679     -2.9022151952     1.6958859429
C     1.3213855087     -3.2895769569     0.580004133
C     -1.5341178734     -1.5234155442     2.1674751422
C     -0.9184850395     -2.6148229035     1.4173276599
C     -2.6143450294     -0.7858092808     1.6023792756
C     -1.6163543641     1.4378246263     2.2327221108
C     -2.6351655349     0.674600903     1.6018186809
C     0.2748605135     2.9472023639     1.7311459676
C     -1.1141832645     2.6589581757     1.5831676274
C     2.2024651511     2.4351983708     0.5400052905
C     1.0625196852     3.3382412304     0.5740248119
C     2.8837788771     0.2605516513     -0.4922294361
C     2.4719434665     1.6632926653     -0.6307491189
C     2.4322370165     -2.1191617896     -1.1099570781
C     2.467548563     -0.7375463076     -1.4987720861
C     0.7666605378     -3.6887382264     -0.6448953848
C     1.5041723948     -3.0342837026     -1.7069297762
C     -1.4756642142     -2.9563411846     0.0847578462
C     -0.6276747447     -3.5150014387     -0.9202720263
C     -3.1822990764     -1.2071475013     0.389532008
C     -2.5921285653     -2.1811495068     -0.414753912
C     -3.2536473969     1.1254006852     0.3563986993
C     -3.5539864612     -0.0303600623     -0.4070142595
C     -1.7402653252     3.0836180038     0.3482215471
C     -2.7514164689     2.2324916367     -0.3065294469
C     0.4394549776     3.7213836573     -0.605503593
C     -0.9950631773     3.6990952695     -0.6597005829
C     1.7708390854     2.0568536353     -1.8265019204
C     0.9080201418     3.1514929754     -1.8398599598
C     1.5632377356     -0.3282360552     -2.5943746684
C     1.2222140239     1.027132138     -2.7289922151
C     0.5918070493     -2.6183418511     -2.6731694258
C     -0.72218695     -3.0138596326     -2.2826874145
C     0.5754324623     -1.2493026016     -3.1122151033
C     -2.6091604225     -1.6120311088     -1.7770216074
C     -3.0748341357     -0.2180947099     -1.702592847
C     -1.5890575221     -1.9392924432     -2.634506177
C     -0.7935843371     -0.8457868279     -3.2398894499
C     -2.4437050981     2.1379725166     -1.72434163
C     -1.4062165147     3.1065425688     -1.9503414191
C     -0.2669329679     2.7716361049     -2.6440834844
C     -0.0855722969     1.447929562     -3.1548325272
C     -2.3958480025     0.8665513542     -2.3816449058
C     -1.1776375098     0.5162613348     -3.1369149005


