58

 C     1.355329897     0.1839956574     4.440491327
C     0.4767434337     -0.977796269     4.3740918159
C     1.1765794485     -1.9908639915     3.7008111741
C     2.5741459474     -0.1152465742     3.6981806375
C     2.4881266457     -1.451494603     3.2781505686
C     2.7588826106     0.9076550912     2.6947403876
C     0.7115810074     1.212563656     3.7554760014
C     1.5716942704     1.7625485309     2.7117994291
C     -0.7977323612     -0.5549908958     3.840898922
C     -0.6634288426     0.8433615244     3.4320925612
C     -1.4679436176     -1.3974079398     2.9588063673
C     0.6121179198     -2.6686099254     2.5699583772
C     -0.7460714217     -2.502252735     2.3050282162
C     2.6758433246     -1.8199097247     1.9048999684
C     1.5279178045     -2.592204397     1.4332552105
C     3.2393424243     0.5384477505     1.4418314206
C     3.2099111871     -0.8753682728     1.0301690211
C     2.882329622     1.3105481395     0.2967445102
C     1.004260256     2.2659346982     1.5341883793
C     1.7993561716     2.2271527329     0.3012467322
C     -1.2608400692     1.3344197513     2.2641419443
C     -0.4716172658     2.2338172651     1.3871756229
C     -2.3426848475     -0.8382216178     1.9805633414
C     -2.3141308785     0.5354948161     1.6268636018
C     -1.2289641015     -2.6195943199     0.9652799612
C     -2.4234838993     -1.8050480337     0.8945905476
C     1.0597106282     -2.5088296522     0.0867703026
C     -0.3743370083     -2.6583672957     -0.1760834987
C     2.8831885695     -0.9284855241     -0.3599065736
C     3.0033198765     0.4267071004     -0.8542569608
C     1.8422589887     -1.7467995197     -0.8904058882
C     2.4923047327     0.7626829462     -2.0517999393
C     1.1976577301     2.5830112357     -0.9789749641
C     1.7519281685     2.024995842     -2.1933428934
C     -1.0061870467     2.5657857653     0.1520002479
C     -0.186231076     2.8931625709     -1.0168770029
C     -2.848605539     0.9189989811     0.3249779583
C     -2.2778216655     2.0330029081     -0.3428388103
C     -2.9550417649     -1.477520306     -0.2963323017
C     -3.4194656711     -0.1017224912     -0.526804165
C     -0.947949713     -2.3092581868     -1.4865079396
C     -2.3386679266     -1.9653325701     -1.5154719849
C     1.2808129345     -1.3926868107     -2.2047515276
C     1.8382007198     -0.2476092779     -2.8615143114
C     -0.0943190096     -1.787400801     -2.5736330117
C     0.9816433807     1.9021904118     -3.3434156473
C     1.0996769642     0.4889403407     -3.8262226781
C     -0.9890086949     2.7100960402     -2.1958627921
C     -2.2979891454     2.171782131     -1.7740294533
C     -0.3965561814     2.2634853192     -3.4017212732
C     -3.4824872602     0.0663316385     -1.9048000998
C     -2.881222315     -1.1481912162     -2.543333909
C     -2.9583279601     1.209965401     -2.5761620209
C     -0.7305087157     -1.1089753495     -3.682018515
C     -0.1169294022     0.0600390207     -4.2678237301
C     -1.0666397103     1.209877886     -4.1560781249
C     -2.1328587426     -0.7690050088     -3.6181681272
C     -2.2768127907     0.7121981669     -3.7660863613


