58

 C     1.4616040405     0.0813006138     4.4724547708
C     0.6251630907     -1.0918707795     4.6412255553
C     1.3504739468     -2.2121011324     4.1607441739
C     2.566912498     -0.2826391663     3.5740546709
C     2.4899224711     -1.6434499586     3.350302358
C     2.5474408934     0.5924935907     2.421877405
C     0.7279832751     1.0482422442     3.7920169078
C     1.4664309693     1.5120340687     2.6485562773
C     -0.6857612828     -0.7963505561     4.0759061058
C     -0.6258176418     0.568259831     3.5152973543
C     -1.3343264996     -1.7809357229     3.309244648
C     0.7133431916     -3.1452808903     3.3469601213
C     -0.6584964545     -3.0344000247     3.0471591578
C     2.4131454046     -2.1794721966     2.0004524736
C     1.4183801221     -3.1783036545     2.0331293422
C     2.6872176452     0.0960800048     1.0828965789
C     2.5122692072     -1.3199308583     0.8356026192
C     2.3622717136     1.0212883292     0.0333392555
C     0.7878992136     2.0826235963     1.5705683395
C     1.5397448704     2.1587545135     0.3506560087
C     -1.26984192     0.951906611     2.3190272656
C     -0.6359951354     1.9444873712     1.4342029787
C     -2.0312704361     -1.3745086558     2.081588247
C     -2.09625175     -0.0363752485     1.6206750032
C     -0.8049006565     -3.2696592368     1.6182611067
C     0.4790756329     -3.3109321824     0.9767546844
C     -1.7557834976     -2.3930981607     1.0868790655
C     1.7771810752     -1.6725902761     -0.3787897307
C     0.67942474     -2.6116052949     -0.2520627146
C     2.286778978     0.5708393243     -1.3380654361
C     1.7792811114     -0.7742766333     -1.5277652772
C     2.0578128653     1.5655371736     -2.3367348567
C     0.9697780105     2.9338733737     -0.665515812
C     1.4604480812     2.8186372366     -1.9696884216
C     -1.2433056032     2.334010759     0.1696021503
C     -0.4693903455     3.0949778388     -0.7410286571
C     -2.4793664575     0.1988999985     0.235886525
C     -2.3285940973     1.5238392245     -0.389969985
C     -1.6913542218     -2.0544471164     -0.2693813833
C     -0.4974306666     -2.3043100681     -1.0330467384
C     -2.4768663443     -0.9206049621     -0.665144004
C     0.8640892839     -1.0030236883     -2.6456076409
C     -0.3693318803     -1.6907988292     -2.325473462
C     1.4385476619     1.2127205327     -3.5646762052
C     0.8130382802     -0.0401609445     -3.7299512716
C     0.4263910018     3.1940898304     -2.9227310345
C     -0.8046177994     3.2525421758     -2.1625945264
C     0.51690371     2.298863841     -4.0064726963
C     -2.6697039088     1.699078941     -1.7486276067
C     -1.9527796891     2.6116831954     -2.6614316155
C     -2.5951655348     -0.7354586203     -2.0434628938
C     -1.5916173605     -1.2501063744     -2.9342779102
C     -3.0293468452     0.5351092216     -2.5582982456
C     -0.4173919605     0.2175373165     -4.4613488088
C     -0.6213322202     1.7104483332     -4.551623822
C     -1.8879314617     1.9606637822     -3.9642786534
C     -1.6066508859     -0.3780261154     -4.088834061
C     -2.5883304484     0.6938944944     -3.8684376594


