58

 C     1.5451721288     -0.0094732961     4.1923446594
C     0.81332947     -1.2477635837     4.1676218158
C     1.5517072434     -2.1630530343     3.3892278202
C     2.6575306303     -0.1157788851     3.2356217856
C     2.7043193823     -1.4391799692     2.8006058705
C     2.5459845214     0.9485949572     2.2682394831
C     0.7084146991     1.0024138398     3.7136023976
C     1.3660842061     1.7212624596     2.6458769754
C     -0.5552188914     -0.949402445     3.7720755427
C     -0.6323420053     0.4894035196     3.4811683099
C     -1.1978464248     -1.7898644779     2.8785366509
C     0.9425551033     -2.9022246835     2.337570786
C     -0.4546968886     -2.8517633144     2.1771021012
C     2.7380446056     -1.7261492829     1.4074564463
C     1.7449650395     -2.7458690482     1.1210274024
C     2.775872399     0.7200120741     0.885003227
C     2.9369257941     -0.6689462411     0.4574671207
C     2.2414470597     1.6980376742     -0.0660557103
C     0.6103786116     2.359266451     1.6812947039
C     1.2535266969     2.6376201575     0.4009650869
C     -1.3928298647     0.9994912727     2.4168838906
C     -0.8563360786     2.1607080687     1.6936494033
C     -2.1686242086     -1.2675033337     1.9411868982
C     -2.3099443631     0.1144285599     1.6871855658
C     -1.0432279147     -3.0240282077     0.8871824115
C     -2.2419972372     -2.1978700824     0.8342006791
C     1.1768812085     -2.8794130193     -0.1649332327
C     -0.2545843574     -3.1737877308     -0.3033880618
C     2.5959908028     -0.9846764556     -0.8784858094
C     1.7967636894     -2.1181440055     -1.2036759245
C     2.2753911586     1.4103845693     -1.5067979857
C     2.3879920425     0.042705355     -1.8799271225
C     1.5473203416     2.2674578215     -2.4170458805
C     0.4927037509     3.4047362062     -0.5298360696
C     0.7488284024     3.3410867955     -1.914255704
C     -1.5672404688     2.6760597555     0.6159752943
C     -0.9441178204     3.5214272782     -0.3269944624
C     -2.8542801433     0.5356142082     0.3788180566
C     -2.5681668146     1.8445701242     -0.0969961992
C     -2.7951989277     -1.8369850978     -0.3721685847
C     -3.1500102005     -0.433129988     -0.6159723087
C     -0.8983704584     -2.8753051301     -1.5468662325
C     -2.2259580888     -2.3608561759     -1.5593602587
C     1.12239598     -1.8221805727     -2.451937467
C     1.5850386001     -0.5282833467     -2.9370851703
C     -0.1875204665     -2.2229229949     -2.6452618138
C     0.843252559     1.6907828695     -3.5313852456
C     0.7397898807     0.3017884698     -3.6796102987
C     -0.5558576191     3.2938798689     -2.5981701387
C     -1.5519199586     3.277624714     -1.5961033611
C     -2.4953384345     2.1810648813     -1.4858647906
C     -0.5156742522     2.2356650487     -3.5069226708
C     -2.9220991342     -0.1546902069     -2.0180296857
C     -2.3277126068     -1.3406433185     -2.563290679
C     -1.1208711991     -1.2859427832     -3.3104305307
C     -0.6987036545     -0.047173205     -3.7735404699
C     -2.495275041     1.1283323688     -2.481973405
C     -1.4666424941     1.1585845471     -3.5055251408


