58

 C     1.6022981474     0.0060155781     3.9110433782
C     0.7955147349     -1.1286647589     3.8011542793
C     1.3414508183     -2.0532370356     2.8312399548
C     2.6196753725     -0.0775418021     2.9132596235
C     2.4330534367     -1.3369717848     2.1972395814
C     2.5616724963     1.0932532988     2.1233836463
C     0.753612925     1.1346303641     3.5344078088
C     1.4005788467     1.8951403176     2.5554585448
C     -0.5972097221     -0.7126003405     3.6512259325
C     -0.5976297672     0.7249148048     3.3116099512
C     -1.4499838997     -1.5455727562     3.0126085925
C     0.4580680392     -2.8851223953     2.0879490226
C     -0.9657060712     -2.7945837867     2.3878262365
C     0.8062315306     -3.1612120745     0.7328706933
C     2.6239181441     -1.4167560512     0.7832247469
C     1.8747273614     -2.4155583075     0.1024639292
C     2.930282819     1.0874651769     0.7411925824
C     3.0060080861     -0.1963719982     0.0348160367
C     2.5720642895     2.2433496436     0.0315588509
C     0.6412361406     2.5887868149     1.5916162835
C     1.4347262516     3.0694927352     0.5054957055
C     -1.3397583191     1.20699876     2.1867646665
C     -0.7583231293     2.2661301877     1.3671924034
C     -2.5094243492     -0.993944162     2.1592749163
C     -2.3813998216     0.3208835375     1.6098895803
C     -1.9090568114     -3.1404877502     1.427929617
C     -2.9497050816     -2.0840022092     1.3683906748
C     -0.2022992978     -3.4256492592     -0.2783110934
C     -1.5677941743     -3.4844825497     0.0756199261
C     1.5308943677     -2.2660098393     -1.2944053221
C     0.2043744418     -2.8012899302     -1.5178507591
C     2.7829571379     -0.1549850287     -1.3570051944
C     1.9771570693     -1.174704702     -2.001482076
C     2.5520289554     2.2989786316     -1.4079137498
C     2.5670969834     1.0783151498     -2.0883144186
C     0.827449482     3.6531658393     -0.5776702619
C     1.5778832059     3.3027482317     -1.7912306575
C     -1.3384841408     2.60617034     0.0553766407
C     -0.5883893419     3.4640043306     -0.8232324063
C     -2.8232349694     0.5325506345     0.2314950584
C     -2.3195563166     1.678977196     -0.5374361721
C     -3.3155047752     -1.8981078926     0.0559084371
C     -2.4926176787     -2.8086035847     -0.7866539473
C     -3.2932352211     -0.6070672994     -0.5122336673
C     -0.7057418807     -2.0950433223     -2.3521385464
C     -2.0895047514     -2.1027303     -1.9174425362
C     -2.7883561687     -0.8077545018     -1.8658274415
C     1.1430966382     -0.549461099     -3.0153742737
C     1.5811964828     0.823151166     -3.1554066105
C     -0.2221648467     -0.9397678139     -3.1298432391
C     0.6800918717     3.0883072205     -2.8021180971
C     -0.6835654835     3.3204073677     -2.2529518339
C     0.6667307584     1.8251563954     -3.5311868535
C     -2.3583321215     1.576310534     -1.9660481958
C     -2.3436802865     0.2478989266     -2.5703886398
C     -1.1499380738     0.1355341123     -3.4211695526
C     -1.5009016025     2.3543844495     -2.7816195316
C     -0.7045787507     1.4351626008     -3.6442322239


