58

 C     1.3801654112     0.0085909167     4.5940278647
C     0.631674026     -1.1434336213     4.2299620827
C     1.4773407229     -1.9759948154     3.4750191414
C     2.6848623995     -0.0394040937     3.8552572146
C     2.7434710192     -1.2675911489     3.1673282663
C     2.8126530641     1.1450546684     3.1263115187
C     0.6746702409     1.1400161059     4.1468689243
C     1.56738906     1.9436778668     3.3846003671
C     -0.6392283733     -0.7194607964     3.6055521981
C     -0.5983054743     0.7114513267     3.5179636446
C     -1.2120695842     -1.4636876384     2.5558694919
C     0.9919959779     -2.5941958414     2.312987025
C     -0.4095675027     -2.5898066862     2.0210589408
C     2.8598206999     -1.3115295172     1.7488964338
C     1.9111222107     -2.3051198048     1.2389741612
C     2.970714316     1.1200922689     1.711992108
C     2.9975955726     -0.1170194177     0.958923462
C     1.1362764978     2.5088613059     2.2044567435
C     2.1238636646     2.1774056165     1.1733067015
C     -1.1016762478     1.3757887938     2.3653130733
C     -0.259182807     2.4334634636     1.7990190613
C     -2.0891335116     -0.7717815227     1.6132250218
C     -1.9927168449     0.6580442742     1.4584638657
C     -2.5969925046     -1.5360187942     0.4993118566
C     -0.721751799     -3.0570402978     0.7545042239
C     -1.9949405355     -2.7755148965     0.1843587792
C     1.486021784     -2.3377836886     -0.1024948259
C     0.2460117937     -2.999507614     -0.3335274705
C     2.5141056909     -0.1166723009     -0.4316764702
C     1.8965037852     -1.2826145862     -1.0293032898
C     1.8190380344     2.2654143385     -0.1648345242
C     2.2158777127     1.1694998044     -1.0575485823
C     -0.4940152945     2.8122980371     0.4949842264
C     0.5889170908     2.9475662995     -0.4825701618
C     -2.3736239064     1.267847689     0.1544412282
C     -1.6534240994     2.4050532709     -0.2494202431
C     -3.083709792     -0.923290994     -0.730403744
C     -2.9987997032     0.4782147808     -0.9316430792
C     -1.8665378057     -2.8108558532     -1.2417323672
C     -0.4779204054     -2.8284127288     -1.5618758092
C     -2.6991605273     -1.8118176673     -1.8107816051
C     1.2446765411     -1.2082133951     -2.3382696524
C     0.036542961     -2.0108113203     -2.6254264826
C     1.7250319226     1.2061055044     -2.3556550092
C     1.3965340847     0.0019082961     -3.0816343311
C     0.0526829282     2.9393842054     -1.7660107204
C     -1.394717531     2.7190416809     -1.6544960762
C     0.7691496731     2.2489472232     -2.8039062455
C     -2.9317703142     0.9511914108     -2.2976053531
C     -2.0899085403     2.0930546781     -2.6584774396
C     -2.3284045733     -1.3202265078     -3.0543316243
C     -0.9447159488     -1.5136927333     -3.5477112114
C     -2.7169769469     0.0135194926     -3.3669967831
C     0.4921233432     0.3632777756     -4.1300952604
C     0.0714700477     1.7726956657     -3.9027528017
C     -1.3750478632     1.7914217719     -3.9195576005
C     -0.6579273711     -0.3799068125     -4.3699273042
C     -1.8160764686     0.542516542     -4.3523115483


