58

 C     1.4189954388     -0.0310812261     4.3625837761
C     0.6111232182     -1.1810569016     3.9981015259
C     1.3605014656     -2.0262977912     3.1574456764
C     2.5680246763     -0.0572157923     3.4876886593
C     2.5878098737     -1.2866430713     2.7938846703
C     2.5813588452     1.1321140446     2.6771428624
C     0.6623498378     1.0922590802     3.9599825541
C     1.3840296432     1.9074350523     3.0273349222
C     -0.7047670589     -0.7729032388     3.5579113941
C     -0.6932540624     0.6891067121     3.5903884191
C     -1.3461907546     -1.4332634847     2.4801841144
C     0.7943139752     -2.5519545665     1.9842539173
C     -0.5987060765     -2.4301495184     1.7101855158
C     2.7325491295     -1.3595417788     1.3889163538
C     1.7106002341     -2.2553813572     0.8841848803
C     2.9905371958     1.0848394638     1.3198325325
C     3.0453504866     -0.203742288     0.6062706463
C     2.6071092538     2.2220565644     0.5384663567
C     0.6704884613     2.6397752958     2.0240199617
C     1.3696580578     2.9490990785     0.8370029896
C     -1.3855829866     1.4263562519     2.6374992691
C     -0.7473506611     2.4724165548     1.8801333884
C     -2.3423277922     -0.6647676966     1.7251808398
C     -2.2994034286     0.7516805815     1.7530915706
C     -2.8900132929     -1.2260836673     0.5614538363
C     -1.021119936     -2.7865312534     0.3819188964
C     -2.3616413926     -2.456315452     0.0149669411
C     1.2826350051     -2.2544556267     -0.4485730593
C     -0.0416271495     -2.8357375217     -0.7092004645
C     2.7644583426     -0.2607932763     -0.8214644958
C     1.8931138217     -1.3100956171     -1.3677322196
C     2.7723659431     2.2072259669     -0.8387825867
C     2.849510686     0.9768236117     -1.5519107947
C     0.7068342725     3.2606784602     -0.4097484393
C     1.6642281729     2.9914410786     -1.4336529134
C     -1.3667943419     2.5031677226     0.5730285824
C     -2.4012756441     1.5047354008     0.5249885824
C     -0.6685001137     2.8787025525     -0.6146032734
C     -3.3836097116     -0.4139582789     -0.5461660119
C     -2.8673232782     0.9247084397     -0.6771806658
C     -2.8016654375     -2.5468512156     -1.3228812222
C     -3.4857510328     -1.2561195121     -1.6736944678
C     -0.5039144978     -2.8309177406     -2.0443449166
C     -1.9235926805     -2.8549709827     -2.3465926979
C     1.2281568239     -1.1269682544     -2.6573422064
C     0.1125591841     -1.9198284921     -2.9842185611
C     2.0911013395     1.165048451     -2.7630923372
C     1.2886561668     2.4085051813     -2.6041172042
C     1.2716090062     0.193573171     -3.2741490454
C     -1.0919718996     2.2652858139     -1.8935294042
C     -2.2555973406     1.3368390715     -1.9476512498
C     -0.0764744891     2.0889377962     -2.8836591885
C     -0.025759882     0.8473702806     -3.6176802473
C     -3.0593508154     -0.8445502856     -2.9273171817
C     -2.1862601795     -1.9183028251     -3.4428562777
C     -0.9910705787     -1.3483746934     -3.8013521205
C     -2.3565867676     0.4215996775     -3.0433901289
C     -1.1425453048     0.103072061     -3.7911602033


