58

 C     1.4923190183     0.0135487923     4.0557097458
C     0.7085288225     -1.1646350449     3.886657304
C     1.2815376012     -2.0004611478     2.8584360781
C     2.4940021452     -0.0152899122     3.0856617244
C     2.4314110626     -1.2661206189     2.3444928075
C     2.467449366     1.2087577847     2.3125489668
C     0.6107480673     1.1260939863     3.6674686072
C     1.2231655866     1.889807725     2.6375811659
C     -0.66606976     -0.7944119294     3.766767682
C     -0.7044380557     0.677103846     3.4864779189
C     -1.5260143123     -1.6166007234     3.0679663934
C     0.4038360854     -2.6986227787     1.9598954327
C     -1.0160259906     -2.6268215417     2.1643753334
C     0.8472659166     -2.8362407858     0.6077438193
C     2.7502602753     -1.2605865987     0.9682411946
C     2.0358716009     -2.191624848     0.1460039127
C     2.9899566665     1.2553529891     1.0143945061
C     3.2469227693     -0.0193543493     0.3148681814
C     2.5368103925     2.3801898715     0.2524291348
C     0.4402785336     2.462650525     1.5785772733
C     1.2045494575     2.880062557     0.4712547032
C     -1.5166208396     1.1792665992     2.3906637991
C     -0.9602343672     2.0906664112     1.4072343941
C     -2.6718268849     -1.0163591062     2.446343118
C     -2.6061519671     0.3287375289     2.0052185489
C     -1.9402115905     -2.6827724855     1.0409558869
C     -3.0159825174     -1.7901734997     1.2990137879
C     -0.0729390665     -2.9578748291     -0.5206618175
C     -1.4818402175     -2.8545174485     -0.3275048014
C     1.8847068689     -1.9934392946     -1.2755464638
C     0.5579159716     -2.425199242     -1.684322586
C     3.2619034375     0.0240269268     -1.0951089945
C     2.508224684     -0.9459095787     -1.8966614096
C     2.754404615     2.4331596934     -1.1481820839
C     3.137235965     1.2654313131     -1.8035170885
C     0.5970260929     3.1218430886     -0.8272276077
C     1.5923484218     2.9932834961     -1.8248415647
C     -1.5649513925     2.1986362843     0.0539229874
C     -0.7722943273     2.7334605917     -1.0434643323
C     -3.1895735167     0.4145550646     0.6694101422
C     -3.5084692277     -0.9357153631     0.2675871826
C     -2.7384383987     1.3731282145     -0.2739368359
C     -2.2343898468     -2.2772144498     -1.3840454397
C     -3.316640696     -1.319219622     -1.0605632217
C     -0.1636183602     -1.7562374184     -2.7192699138
C     -1.5991828015     -1.8041614971     -2.5960288054
C     1.8314034907     -0.2536718002     -3.0001661176
C     2.2719649532     1.0829501117     -2.9684709504
C     1.3245876932     2.1655513894     -2.9718816546
C     0.4775013968     -0.591499782     -3.372846856
C     -1.0806365315     2.3357629326     -2.4119256708
C     0.0170300578     1.8673286956     -3.2915726377
C     -0.3517103225     0.5309353894     -3.7189864147
C     -3.0242230039     1.0508109702     -1.6635534893
C     -3.3117861344     -0.3134847491     -2.0246695808
C     -2.3770476226     -0.6962251257     -3.0823616281
C     -2.2083553178     1.5770881305     -2.6987253392
C     -1.7614939163     0.4442546218     -3.5418584374


