58

 C     1.1309839208     -0.0311968581     3.9265244031
C     2.2786396184     -0.3523932299     3.2440776461
C     2.2081788733     -1.7701144199     2.8142160675
C     0.3033956513     -1.249958304     3.9801202542
C     0.9045348336     -2.25533178     3.1135335916
C     -0.9971663323     -0.8644175243     3.761463644
C     0.3075336696     1.0592082656     3.4284697787
C     -1.0277178781     0.5854190409     3.4773573948
C     0.699099522     1.8290500947     2.2902983799
C     2.7602620487     0.4332915839     2.1622011974
C     2.0284749886     1.5863373067     1.7079402928
C     2.7729654431     -1.84498339     1.5345115422
C     3.2640090771     -0.502265903     1.1722624908
C     2.1068521695     -2.5944054003     0.5472353232
C     0.1146521987     -2.8573946462     2.0596654579
C     0.7932242697     -3.0975075631     0.8132666567
C     -1.8484172783     -1.4982422611     2.8109488161
C     -1.3329980647     -2.54657369     1.9760029675
C     -1.9951488522     0.8291205331     2.4872794737
C     -2.6738699218     -0.4371353298     2.2278943988
C     -0.3864337633     2.3248729181     1.4093487542
C     -1.7298580119     1.7450960508     1.4357850386
C     -0.0154678637     2.9994018917     0.2377032947
C     2.2994118503     2.0523982252     0.3632248877
C     1.3707991436     2.9774181823     -0.2269549757
C     3.3302115189     -0.1334103674     -0.1487588649
C     3.0266168114     1.2222576701     -0.5452180029
C     2.1576392439     -2.1675869152     -0.849611914
C     2.8404273084     -1.0077102308     -1.2006902876
C     0.0851763661     -3.0910473443     -0.4688645634
C     0.910108797     -2.4659823443     -1.4902689777
C     -2.0113193727     -2.7155997305     0.7205668407
C     -1.2811427235     -2.9822561466     -0.5178532743
C     -3.2871423117     -0.6166058824     1.0178119136
C     -3.084194169     -1.8692487239     0.3532600426
C     -2.494896915     1.6154795978     0.179608257
C     -3.2825854516     0.4480135396     0.0152878313
C     -0.9005421016     3.1749584703     -0.9049563924
C     -2.0638861217     2.3426978445     -1.0284277576
C     1.3338776655     3.1753483994     -1.6071767175
C     -0.0571763162     3.4212300321     -2.0345911304
C     2.6878836287     1.1954174198     -1.9448635419
C     2.3761970799     -0.1868590119     -2.2877762264
C     1.9415184304     2.2377090053     -2.5074256583
C     0.3677856545     -1.6322397826     -2.5126179258
C     1.1854041176     -0.5123902469     -3.0041031452
C     -1.8824844841     -2.2380604176     -1.6141968754
C     -3.0264459071     -1.5969477045     -1.0514640687
C     -3.2894518105     -0.213765135     -1.2821237959
C     -1.1014585872     -1.5429966695     -2.5840318647
C     -2.3238264128     1.7681996312     -2.3314726596
C     -2.7190907544     0.3797481772     -2.3817485987
C     -1.699226582     -0.3492500623     -3.1464861352
C     -0.2600589982     2.7486974991     -3.2320620274
C     0.9588088867     1.9188111092     -3.4915250525
C     0.532208291     0.5906072319     -3.6929372902
C     -1.3883088341     1.9437742577     -3.4001892993
C     -0.9165652883     0.6193130273     -3.7794695839


