58

 C     1.6423360883     -0.2496001443     4.8204329876
C     0.8462517199     -1.3544532631     5.0777526434
C     1.3152096645     -2.4591161955     4.2755850266
C     2.6075215455     -0.5688211541     3.738752176
C     2.3956611131     -1.9202427267     3.4102786201
C     2.4657069181     0.4561378839     2.739337712
C     0.8502111304     0.8862389082     4.382298718
C     1.3904051638     1.3799631929     3.1739967791
C     -0.5213727621     -0.9718572624     4.6297861864
C     -0.5481825761     0.4611867244     4.3845055371
C     0.2795623499     -2.7099827113     3.3616211099
C     -0.8967176024     -1.8374282998     3.5790425221
C     2.0940714035     -2.2061677748     2.0363940463
C     0.7515829388     -2.7813338315     1.9988008591
C     2.5088672648     0.1454883254     1.3652151962
C     2.3693666653     -1.2597009305     1.0303848298
C     1.9786708998     1.1089275783     0.3743682151
C     0.5470069905     1.9989286034     2.1756194076
C     0.9879077716     2.050882713     0.7787650249
C     -1.3366765351     0.9067136114     3.3523680321
C     -0.8453243662     1.9121226966     2.4197837601
C     -1.6636463681     -1.372360973     2.4363235413
C     -2.095130714     -0.0196683681     2.5089182693
C     -0.0983795056     -2.5349729998     0.9100657393
C     -1.4089836534     -1.9059734817     1.0802474447
C     1.7827838775     -1.5373201611     -0.2401513997
C     0.5589379949     -2.2408632618     -0.3308320952
C     2.0867058559     0.7703758849     -1.0224702453
C     2.1173876029     -0.645477908     -1.3151785913
C     1.5634571987     1.6444133016     -2.0648337408
C     0.0799032581     2.5369206068     -0.2637217296
C     0.4595115393     2.5143645155     -1.657901876
C     -1.7083350179     1.9113228225     1.2930131368
C     -2.446770969     0.6646455185     1.3184032507
C     -1.3344717835     2.4586471525     0.0654835521
C     -2.0058905674     -1.298351559     -0.0863213509
C     -2.6561933565     -0.0118121939     0.091890146
C     -0.2127545993     -2.1058762666     -1.5449847574
C     -1.545542221     -1.6000697631     -1.4646238808
C     1.7914170934     -1.1085650943     -2.5849643183
C     0.5519461608     -1.927150659     -2.7259515918
C     1.6489463355     1.1772041096     -3.4314737914
C     1.833852853     -0.2178602222     -3.6694837867
C     0.6380064802     1.5839076847     -4.4280180747
C     -0.5900394894     2.7614519967     -2.6546091383
C     -0.4588280262     2.2876310986     -4.0088372645
C     -2.2522346723     2.1611721935     -0.9820517753
C     -2.8274344692     0.8263661267     -1.027150176
C     -1.9368820977     2.5190597921     -2.2794047871
C     -2.0842711156     -0.8923996074     -2.6545995698
C     -1.689519416     1.4274210148     -4.3136362779
C     -2.7760147968     0.355412077     -2.3824448559
C     -2.4964108564     1.5021545988     -3.1975634594
C     -0.0586554511     -1.5711748364     -3.9317609016
C     0.854757572     -0.6889198056     -4.662856768
C     0.1494720238     0.3725886125     -5.1487228576
C     -1.3832548875     -0.9760096526     -3.9233629589
C     -1.2695075684     0.1918817428     -4.8115224495


