58

 C     1.2637813216     -0.1476389032     3.7118072427
C     2.441868961     -0.4413687616     3.0631019935
C     2.3329427436     -1.8315594743     2.5371841743
C     0.3983843416     -1.3405867109     3.7000852627
C     1.0427710454     -2.3419695476     2.8921975699
C     -0.906727683     -0.927431379     3.4260329248
C     0.4803889756     0.9937533527     3.3270783318
C     -0.8862810341     0.5493906884     3.377483216
C     0.9270733065     1.887836633     2.2965050974
C     2.9455594625     0.4049779908     2.0552390426
C     2.2402049779     1.622092288     1.7089550278
C     2.799465607     -1.8264822484     1.2238894713
C     3.3669313201     -0.4891833819     0.9770975067
C     2.0636311975     -2.484532752     0.168805497
C     0.3029230157     -2.9790064066     1.8843875422
C     0.8639164295     -3.1384671364     0.5630095986
C     -1.7318408124     -1.6508917948     2.4651504242
C     -1.1117887954     -2.6864920272     1.7160210064
C     -2.7852394319     -0.9109761579     1.8174041601
C     -1.8420145626     1.2161090984     2.645654653
C     -2.9068532676     0.4684018026     2.0548781774
C     -0.1043647533     2.5785025771     1.4770581907
C     -1.4620961379     2.2877351958     1.7364305469
C     0.2217751976     3.0979910581     0.1257371089
C     2.5136078092     2.1347108141     0.3988323445
C     1.5231004559     2.893978645     -0.3791519804
C     3.497301744     -0.008632152     -0.297688372
C     3.2955717554     1.3884546251     -0.5063184995
C     2.1431657122     -1.9235170642     -1.2037162316
C     2.8742940302     -0.7138410824     -1.4216820548
C     1.0944610518     -2.1917353761     -2.1259565452
C     -0.2509950912     -3.2340319374     -0.3635931538
C     -1.4613847819     -2.8985551871     0.3190555274
C     -0.0815413737     -2.904067563     -1.7113622589
C     -3.1328169397     -1.1177549749     0.4101718086
C     -2.463626298     -2.0979492876     -0.3436607002
C     -3.2994277147     1.1279608867     0.8314494167
C     -2.4652200967     2.2821294319     0.6593923585
C     -3.4641718327     0.1772396642     -0.1868632432
C     -0.8342304425     3.2218550113     -0.8675481497
C     -2.1526170672     2.6944619778     -0.6104820605
C     -0.5801877131     2.9731515615     -2.2401573405
C     1.739653608     2.5782022902     -1.7862474378
C     2.7208207716     1.5515136477     -1.8139130946
C     2.4539759213     0.2866525551     -2.3908705379
C     0.6601257135     2.4693619311     -2.6681115119
C     0.6891629212     -1.2050616284     -3.1606872518
C     1.277994928     0.1035954808     -3.207511939
C     0.4212672772     1.2236732698     -3.429668935
C     -1.1927455991     -2.3633922213     -2.4291931504
C     -2.2944389903     -1.8362178031     -1.7663947002
C     -0.6880539467     -1.3488620941     -3.3477077825
C     -3.0876036441     0.5283610237     -1.5405282028
C     -2.5833883719     1.8789822606     -1.7668317629
C     -1.6331415618     2.1103327228     -2.7654896692
C     -1.0219972612     1.0481247431     -3.5048551146
C     -2.5928724111     -0.5028440981     -2.363629566
C     -1.5784540067     -0.2364840959     -3.370273986


