58

 C     1.4088150834     -0.3444420165     4.7019556192
C     0.521624995     -1.3450672228     4.4713863155
C     1.0274393549     -2.2483208549     3.419983808
C     2.55459813     -0.5390996029     3.786046781
C     2.2632573891     -1.6955637096     2.9047223204
C     2.7544643989     0.6818770516     3.1817025277
C     0.7334155508     0.9428412031     4.3660771594
C     1.6090300362     1.6041867236     3.5278988746
C     -0.760365174     -0.7897273425     4.0087495048
C     -0.5868122806     0.6423456356     3.8217287237
C     -0.0234821094     -2.4716329742     2.5413213182
C     -1.1543212578     -1.5546843214     2.9218345767
C     0.2095929843     -2.6604395327     1.1573620196
C     2.4323370676     -1.5950443006     1.4928984703
C     1.4771471527     -2.2792409718     0.6019422827
C     2.9992361264     0.8151095958     1.7963417025
C     2.9977912886     -0.3415409456     0.9457219741
C     1.2060488881     2.239895887     2.3293029925
C     2.2295321663     1.9496930006     1.3324021499
C     -1.0272174484     1.2329063402     2.5862602316
C     -0.1457182918     2.1653575722     1.8736980652
C     -1.892778419     -0.9768514915     1.8695708468
C     -1.9096784901     0.4514437065     1.7200279036
C     -0.9805922514     -2.690791799     0.3268558823
C     -2.0924340663     -1.8200943213     0.7164020099
C     -0.8136698873     -2.955158109     -1.0413159168
C     1.5135773491     -2.0801504185     -0.8547984267
C     0.4517969338     -2.5231234379     -1.6585185732
C     2.8777056681     -0.0628444665     -0.4309323953
C     2.2731043     -0.9760223826     -1.3894059594
C     1.9930664379     2.1739324056     -0.0155186497
C     2.5835575809     1.2435100685     -0.9155745994
C     -0.4055386132     2.5202611692     0.485186357
C     0.7226262914     2.7801504121     -0.4037221376
C     -2.3602938993     0.9890223008     0.4456167042
C     -1.6647805882     2.1549711855     -0.1292192263
C     -2.952820317     -1.3216509003     -0.2716938804
C     -3.0750349155     0.1294584407     -0.4179341875
C     -1.8483639149     -2.6752344378     -1.9552102042
C     -2.9280311013     -1.8808938244     -1.5765635151
C     0.1268483874     -1.9035276148     -2.9469209047
C     -1.2605145262     -2.0385210932     -3.1519697231
C     1.9073656758     -0.2836881814     -2.5781156794
C     2.1019196248     1.1351095576     -2.2719621892
C     0.7912650125     -0.6930598371     -3.3851902626
C     0.5096635553     2.9473196897     -1.7822491606
C     1.2453280961     2.0922528483     -2.7545414369
C     -1.8774509401     2.4744052499     -1.5002139023
C     -0.8077164635     3.0031915945     -2.280999538
C     -3.1954237262     0.3980449656     -1.8501849087
C     -3.0951980737     -0.8128236469     -2.5699170481
C     -2.0794966074     -0.9507134377     -3.587735138
C     -2.617317306     1.5696177328     -2.3961376515
C     0.0078798342     0.3045682336     -4.0549626737
C     0.3061887908     1.7153349108     -3.7952707557
C     -0.8795861936     2.438102879     -3.6274602243
C     -1.4415427759     0.2091811389     -4.0766817068
C     -1.9600444727     1.5058616964     -3.6620765163


