58

 C     1.358521847     -0.0319208609     3.7071385815
C     2.5129423697     -0.3393656595     3.011065182
C     2.4617583051     -1.7375283362     2.5746765158
C     0.5130005555     -1.2178857003     3.6696018449
C     1.1837187397     -2.2665805717     2.9200938178
C     -0.7536262229     -0.7826328312     3.2661205344
C     0.5849387429     1.121939742     3.3081215006
C     -0.7552945655     0.6697251928     3.0617263451
C     1.1580016499     2.1324818348     2.4838796518
C     2.9481007219     0.4979015555     1.9245147511
C     2.4004227442     1.8024517741     1.752834597
C     2.881093639     -1.7487181185     1.2227428373
C     3.1531468906     -0.367985954     0.7947167639
C     2.2979385738     -2.6172393077     0.3206018394
C     0.4549153572     -3.0519441544     1.9606475542
C     1.1428398369     -3.3996008208     0.7381401404
C     -1.5112770898     -1.5734256339     2.3839892745
C     -0.958468256     -2.7795939349     1.8138410067
C     -2.4383471139     -0.9642461333     1.4619419788
C     -1.5835895967     1.2710514681     2.0647267552
C     -2.4624702902     0.4391012315     1.2178032587
C     0.2048353601     2.9714595895     1.8308623009
C     -1.1355724725     2.5149022234     1.5742862095
C     0.5829320225     3.7423697927     0.686985236
C     2.5523896484     2.3307920246     0.4373215686
C     1.7391349456     3.4239504629     -0.0064133202
C     2.8420887075     0.0632992567     -0.5336951776
C     2.679242128     1.451899663     -0.6876670356
C     2.0705798607     -2.2089174447     -1.0689355589
C     2.192625582     -0.8591295397     -1.4886708705
C     0.4097969559     -3.701541218     -0.4388623678
C     0.9974345206     -3.00428736     -1.5447240571
C     -1.6645584293     -3.0076993298     0.5742411468
C     -2.643041217     -1.9256245784     0.4059679527
C     -1.0019600545     -3.5149863569     -0.5494850786
C     -3.0410399745     -1.5023038395     -0.8337838044
C     -2.8799429503     0.9132285386     -0.1105273976
C     -3.2792889348     -0.0803731073     -1.0734125077
C     -1.5545700581     3.0064185562     0.248253091
C     -0.5347587706     3.8253389845     -0.2566326425
C     -2.3689733908     2.1980014002     -0.6220395328
C     1.3913255158     3.2497306741     -1.4134386392
C     1.8821073954     1.9919851862     -1.7991611982
C     -0.0102502224     3.5673649543     -1.5740713334
C     1.2626946503     -0.3353746693     -2.5164488977
C     1.1170819935     1.1100668047     -2.6455218077
C     -0.0041919023     -2.4897405461     -2.4056102654
C     -1.2790946872     -2.9148073489     -1.8552371864
C     -2.3864719304     -2.077515704     -2.0225259991
C     0.1689836591     -1.198009436     -2.996107981
C     -3.0314867096     0.1357105715     -2.4579831468
C     -2.302650098     -1.0519125312     -2.968710715
C     -1.047725567     -0.5910351603     -3.4744693662
C     -2.0774439737     2.3297519682     -2.026510353
C     -0.7561962491     2.8037638557     -2.4331352823
C     -0.1243382925     1.6759640371     -3.1468035097
C     -2.4041525024     1.2725078519     -2.9139737235
C     -1.153811407     0.8287670324     -3.5522834606


