58

 C     1.4325307154     0.0394443282     4.204321073
C     0.6534906224     -1.1498628012     3.9330272874
C     1.4333329544     -2.0772371724     3.2242506727
C     2.6129016927     -0.046742816     3.363772477
C     2.6671001738     -1.3400028364     2.8020695142
C     2.6306010382     1.0417752848     2.4384752382
C     0.6808003821     1.113878639     3.6977986568
C     1.4380394443     1.8477813486     2.727053313
C     -0.622277104     -0.7893533658     3.3580450919
C     -0.6160923714     0.6599760853     3.2363674677
C     -1.2119642322     -1.5635401854     2.3225972329
C     0.9276414184     -2.7727101045     2.1196521516
C     -0.4417108186     -2.6411441736     1.7038268856
C     2.875832817     -1.5878477833     1.4314541009
C     1.9478505258     -2.6622309782     1.0704746561
C     2.9817152481     0.8336992422     1.0587993532
C     3.064049087     -0.5131050861     0.489825251
C     2.5949092778     1.8640458337     0.1821516753
C     0.786240843     2.5820154876     1.7261906456
C     1.5979758044     2.8639043354     0.5844198154
C     -1.2996641917     1.3186815668     2.18908349
C     -0.6516684507     2.4266450284     1.49229318
C     -2.2735312527     -0.9142418673     1.5633974628
C     -2.3493804003     0.5513890932     1.532984913
C     -2.8082065659     -1.6392687955     0.4615077727
C     -0.7680855285     -3.0520377827     0.3384101225
C     -1.994605494     -2.6278964107     -0.2205168294
C     1.6540728222     -2.90052367     -0.2295437091
C     0.3025615222     -3.3005931501     -0.6013179409
C     2.6935361964     -0.7276506621     -0.9202463624
C     2.1528002335     -2.0043743663     -1.2649409151
C     2.4893294252     1.6966242434     -1.2453227568
C     2.3579782464     0.3916952442     -1.809942829
C     1.0647424755     3.443900112     -0.5606989577
C     1.6942491423     2.7805002268     -1.7247846462
C     -1.2071376027     2.8915825476     0.2266307765
C     -0.3270225056     3.4744317582     -0.7869065057
C     -3.0156942094     1.1851387405     0.450165544
C     -2.3895999587     2.2764781974     -0.2456124436
C     -3.5773941051     -0.9684544666     -0.5305616814
C     -3.6995877742     0.3960744376     -0.5290012294
C     -2.1621261164     -2.415996695     -1.6753315936
C     -3.110974231     -1.3940202599     -1.8709782417
C     0.1565192261     -3.0055905327     -1.9720935016
C     1.2692682838     -2.1559593545     -2.356827183
C     -1.025701403     -2.4515223768     -2.5087698893
C     1.3588974743     0.2272547717     -2.8974892289
C     0.7695798996     -1.059133335     -3.0880088505
C     -0.6692717155     -1.2481592901     -3.256182292
C     0.7393313811     2.6188852531     -2.6936466636
C     -0.5240730091     3.1694437374     -2.1984602935
C     0.5050519333     1.32195626     -3.2603811556
C     -2.6005952692     2.0318477701     -1.7062752136
C     -3.343597903     0.8840595722     -1.8706034224
C     -2.8482448122     -0.246054653     -2.6520470312
C     -1.550254636     -0.1269242908     -3.3088722701
C     -1.5164123834     2.2929718927     -2.6009361433
C     -0.9280562523     1.1560982136     -3.3427460504


