58

 C     1.2198692282     0.0524827825     3.939538124
C     2.4278198538     -0.1633036394     3.3066380338
C     2.417924338     -1.5172309261     2.7464444484
C     0.3649150832     -1.1304957441     3.6602814775
C     1.0763048721     -2.0320448758     2.8245146939
C     -0.9069704667     -0.6850083942     3.3214816877
C     0.4436219246     1.2179691957     3.6800599062
C     -0.9356662368     0.7798428429     3.5364097301
C     0.9360809702     2.1686624539     2.7563789231
C     2.8942000462     0.7248426917     2.2723858727
C     2.1395601266     1.8753345345     2.0057356432
C     3.0978434128     -1.5047039023     1.5277127164
C     3.3456159058     -0.1021572487     1.1544993662
C     2.6805926967     -2.4110795291     0.5459887797
C     0.4386599049     -2.5676144159     1.62749835
C     1.3205607133     -2.9312035347     0.5836993021
C     -1.6256308089     -1.2741484541     2.1934887819
C     -0.9419298134     -2.177470932     1.2875012477
C     -2.7230781026     -0.4967014052     1.713121371
C     -1.8288042177     1.5359982986     2.811832534
C     -2.8549560112     0.8583439237     2.1047175319
C     0.0076215659     2.8126142247     1.8325953844
C     -1.3564817555     2.6076278011     1.9266775144
C     1.9177415068     2.2837997963     0.6182315722
C     0.6339698701     2.9017409828     0.5174777071
C     3.2026848888     0.3086608007     -0.195963691
C     2.4668002108     1.5532261481     -0.4736435576
C     2.9483090595     -2.0838077483     -0.7955313215
C     3.145632468     -0.7394854736     -1.194314781
C     0.8541829047     -3.0410879056     -0.7866438804
C     1.9133780911     -2.6407365349     -1.6379440335
C     -1.4196106452     -2.2928876871     -0.1168021006
C     -0.4968840497     -2.7437386732     -1.1412830419
C     -3.19150212     -0.6104590724     0.3437926357
C     -2.604096945     -1.5315236471     -0.5540145626
C     -3.1976007549     1.6119019722     0.9191141699
C     -2.1774016927     2.5723309237     0.7143285919
C     -3.572762943     0.722215353     -0.103708354
C     -0.1302221461     2.8698791295     -0.684680706
C     -1.5940677164     2.7364260178     -0.6014846103
C     1.7972640266     1.7005465157     -1.7227263326
C     0.540027621     2.3687184417     -1.8366345999
C     2.4434633234     -0.5499890381     -2.4655327668
C     1.6983014887     -1.7830383993     -2.7471378299
C     1.8243281481     0.6552378221     -2.7407576881
C     -0.6876216468     -2.3335294274     -2.5309860258
C     0.4334820397     -1.7304696683     -3.2874594236
C     -2.8035415009     -1.2375866141     -1.9682624195
C     -1.8515668908     -1.6837123336     -2.9232957137
C     -3.3081824602     1.1065353945     -1.4234401573
C     -2.2771416225     2.1247623799     -1.6841798383
C     -3.1698921389     0.0937680094     -2.3736675248
C     -0.1950226908     1.8056443348     -2.9697115658
C     0.5858827069     0.7123909761     -3.5108701402
C     -0.0605798886     -0.4928765746     -3.8699476925
C     -1.4823383621     -0.5493324498     -3.8094229081
C     -1.5938393709     1.7367193816     -2.9170204956
C     -2.2292459983     0.5392011397     -3.4050783144


