58

 C     1.1844037664     -0.0078091191     4.1070798095
C     2.2961202177     -0.2208429488     3.333748744
C     2.1728608552     -1.5338694637     2.6718274153
C     0.3047308022     -1.2095490217     3.9208337756
C     0.8862325797     -2.0806690167     2.9052603609
C     -0.9659909735     -0.7448257783     3.7770904216
C     0.3811204407     1.1841280504     3.9325667363
C     -0.9820377144     0.735965044     3.8594128514
C     0.8061777292     2.1503895241     2.986861516
C     2.7181795538     0.7163744184     2.3157633071
C     1.9872814693     1.899099199     2.158991792
C     2.6796738156     -1.432273544     1.3782702074
C     3.0266949576     -0.031953223     1.1257482083
C     2.1142507429     -2.2175989587     0.3459119214
C     0.1053565804     -2.5480493217     1.7881363111
C     0.7985644615     -2.792030227     0.5097535739
C     -1.7899175491     -1.1588844349     2.671083363
C     -1.2974231698     -2.1397410259     1.7307691236
C     -1.8564852117     1.184310427     2.8772134731
C     -2.4616310456     0.0017185706     2.2057578193
C     -0.1611246834     2.7810185202     2.1217033601
C     -1.5216547021     2.3248280979     2.0629363774
C     1.7560540761     2.4477199996     0.8248201695
C     0.5104291377     3.152449326     0.8737438462
C     2.8656792967     0.517123965     -0.1808887909
C     2.1772645022     1.7918558267     -0.3652775601
C     2.570526931     -1.8323008313     -0.9533063578
C     2.8409375184     -0.4224071429     -1.2289907139
C     1.9943051287     -2.3646914857     -2.0890127479
C     0.0330353065     -3.0465043661     -0.7195114444
C     0.6976547305     -2.9840245673     -2.0137594424
C     -1.9478039284     -2.1371731145     0.4729777366
C     -1.3466443685     -2.710650589     -0.7161527308
C     -2.9618180688     0.0863938263     0.8758566573
C     -2.8180516066     -1.0857311725     0.0644752428
C     -2.2174720683     2.4628030352     0.8192693905
C     -2.9920900859     1.3510457852     0.2342631574
C     -0.2122041768     3.343508243     -0.2882644214
C     -1.6439845718     3.1860583813     -0.2469229832
C     1.4324436221     2.0069452843     -1.6228826435
C     0.2780135928     2.8209483804     -1.5511124922
C     2.3660173362     -0.1188137798     -2.56634291
C     2.0330377623     -1.3770248887     -3.171944708
C     1.5302271422     1.0332078222     -2.7445108537
C     0.0010640709     -2.5482419226     -3.1753177356
C     0.8566282523     -1.5301422865     -3.8877785947
C     -1.9921117938     -2.1203016658     -1.8647341371
C     -2.7768245023     -1.0130217543     -1.3837527167
C     -1.3033378743     -2.0224632356     -3.0945527361
C     -2.8705425662     1.4260424299     -1.1922348284
C     -2.0356029596     2.565352643     -1.4655106722
C     -0.9095331537     2.4619383149     -2.3325207357
C     -2.7339586342     0.2642157704     -2.0229507739
C     0.3937775209     0.8635473755     -3.6396665814
C     0.0720318393     -0.4210046534     -4.1823975757
C     -1.305918656     -0.7387157706     -3.7814206741
C     -0.8696221079     1.4463130654     -3.256742179
C     -1.8969895659     0.3860079843     -3.213665938


