58

 C     1.4195319756     -0.1195211613     3.7693792314
C     2.6246482461     -0.4095405045     3.1304318365
C     2.5865159766     -1.7968127204     2.6724045823
C     0.5728218859     -1.3038500403     3.6706377058
C     1.3248272716     -2.3636805295     3.0548273228
C     -0.6570626635     -0.8988255748     3.1163627978
C     0.6517985755     1.0263714765     3.3737876117
C     -0.6693421566     0.5579475575     2.9654874075
C     1.2675106266     2.0054844298     2.607290449
C     3.0807562736     0.4249352952     2.0516750937
C     2.5136874247     1.6829744985     1.9076628208
C     2.9696358584     -1.7997402756     1.3039388663
C     3.2211403501     -0.4269011278     0.8712124941
C     2.3528300843     -2.691059587     0.409221396
C     0.6548422191     -3.1905115139     2.1346131147
C     1.3138337818     -3.519573989     0.9053479081
C     -1.3622230122     -1.7155474079     2.1619283165
C     -0.7403792843     -2.9492121361     1.7973471201
C     -2.3012399348     -1.0477906756     1.2501553996
C     -1.4104095564     1.2014144336     1.9574474574
C     -2.3373434268     0.3964970719     1.1258263807
C     0.4741790658     2.8135220831     1.728697604
C     -0.8907203415     2.4838626842     1.4558441063
C     2.4162211749     2.2666067244     0.604085514
C     1.3253375613     3.2332829647     0.6328382561
C     2.8097134295     0.0252878575     -0.4046825622
C     2.5762920575     1.4593806881     -0.5580586486
C     1.9397364854     -2.2439919814     -0.9188210628
C     2.1173906002     -0.9184116604     -1.3339746765
C     0.3361000657     -3.7082658325     -0.1337787089
C     -0.9495334806     -3.4700644124     0.4479118137
C     0.7101226929     -2.9675506153     -1.2739527643
C     -2.7688016534     -1.839204413     0.1303231457
C     -1.9237447826     -2.9473021176     -0.346973564
C     -3.3433201137     -1.2530726621     -0.9852913771
C     -2.8985829194     1.0088792569     -0.0950996393
C     -3.4171854089     0.1587418076     -1.1481853943
C     -1.4401891965     3.0398557671     0.2568468306
C     -2.4338958512     2.289726329     -0.5217937406
C     0.7820345371     3.7148005013     -0.5360713676
C     -0.6491761937     3.8013250107     -0.6256879614
C     1.9324208758     1.92073348     -1.7573110699
C     1.2428616289     3.1451340664     -1.7818878455
C     1.2232673099     -0.4022003007     -2.4006367801
C     1.2660779044     0.9773943544     -2.6704319506
C     -0.2865852405     -2.4137524029     -2.1306324365
C     -1.650453226     -2.6883993894     -1.7544916045
C     -2.6834405139     -1.8274001083     -2.1860152574
C     0.022816933     -1.1637122522     -2.8282391246
C     -3.070619923     0.4305432582     -2.5163831233
C     -2.4191887697     -0.7886335009     -3.0387488818
C     -1.0709815695     -0.4347600816     -3.3950849993
C     -2.1974201452     2.5808399306     -1.9180936899
C     -1.0469692529     3.4275426491     -1.9799213232
C     0.093694783     3.0013681965     -2.659281365
C     0.1380923811     1.6848415784     -3.2578355828
C     -2.2968089699     1.5297912833     -2.8583009314
C     -1.0451224495     1.0102037203     -3.4778651395


