58

 C     1.1452211791     -0.1199402187     3.8492354546
C     2.2656232876     -0.4060734605     3.125684243
C     2.1341128354     -1.7596367829     2.5262132588
C     0.2713758186     -1.3400076429     3.7779968491
C     0.8299117497     -2.2566455006     2.811529643
C     -1.0087882193     -0.8892234516     3.6413556266
C     0.3483470262     1.042330497     3.5324381979
C     -1.0037900584     0.5947224541     3.5596680344
C     0.7744420107     1.9620955375     2.503877489
C     2.7690390566     0.4862781965     2.136082779
C     2.1004445612     1.7315055166     1.8951035321
C     2.6492946808     -1.6907549204     1.2401668051
C     3.156555388     -0.3322620708     1.0177928318
C     1.9904836584     -2.4021118871     0.1677225746
C     0.0135129984     -2.7741638631     1.7386214034
C     0.6693238839     -2.999844903     0.4431440163
C     -1.8821973759     -1.4002599084     2.6388428254
C     -1.4228936846     -2.4297926936     1.7529624135
C     -1.9363473664     0.9559903222     2.5984755769
C     -2.5782305346     -0.2637628542     2.096020143
C     -0.2734063024     2.5918115369     1.688551943
C     -1.6446620844     2.0457075752     1.6942446961
C     0.1275368965     3.2716042698     0.4946542971
C     2.3828733613     2.3217489038     0.6243595519
C     1.463118012     3.2097723124     0.0530024409
C     3.2658866783     0.1901526303     -0.2963570657
C     2.9942244864     1.5688636448     -0.4731890643
C     2.3333559098     -2.0017880824     -1.1415468923
C     2.9933141915     -0.7230033011     -1.3871794075
C     1.4184783249     -2.2013243528     -2.2564567585
C     -0.1649509444     -3.2330460992     -0.6960975952
C     0.1885251038     -2.766854334     -2.0366584806
C     -2.1669922279     -2.5442374365     0.5379881453
C     -1.5635640073     -3.1062524555     -0.5938250589
C     -3.1709305245     -0.2880153629     0.8076184516
C     -3.06960833     -1.4911738849     0.067309443
C     -2.4460643619     2.1179464166     0.5347009035
C     -3.2335840486     0.9706260788     0.0935181332
C     -0.6990096297     3.292960887     -0.7118886793
C     -1.9635063903     2.7630321795     -0.6780806658
C     1.4791135229     3.0508171876     -1.4066150293
C     2.4217514088     2.0525335293     -1.7326416348
C     0.1579708812     3.0097091628     -1.8746863794
C     2.5522202836     -0.2145826367     -2.6323991057
C     1.5442118055     -1.0861158594     -3.1633295531
C     2.1022641009     1.1367844639     -2.7516540071
C     -0.2389561323     2.0092610558     -2.8608435637
C     0.4227564444     -0.3229180814     -3.5359565729
C     0.7585395974     1.0980222028     -3.2990946964
C     -0.9977016505     -2.144280197     -2.6465869498
C     -2.0741582514     -2.4375633064     -1.7972180641
C     -3.0028778331     -1.4536230616     -1.3962558674
C     -0.9019194608     -0.8334713133     -3.2818493674
C     -3.2864786813     0.9713118869     -1.3209876237
C     -2.4696630024     2.0398888291     -1.8194777725
C     -1.6003237971     1.5365224     -2.8042895014
C     -2.9965634841     -0.2151167136     -2.0634261525
C     -1.9266607704     0.1058469993     -2.9902902134


