58

 C     1.2721354866     -0.0936946233     3.8552326023
C     2.4297616209     -0.2543271902     3.0956253741
C     2.3299806195     -1.5312638115     2.3823387287
C     0.4055604363     -1.2414506209     3.5483456488
C     1.0304918418     -2.0815586625     2.5743696894
C     -0.913901206     -0.8064888731     3.3989013234
C     0.4666321651     1.0733284094     3.7227342596
C     -0.9255805471     0.6468213763     3.6654572234
C     0.893263967     2.092372245     2.8324559717
C     2.8246905095     0.7095868737     2.126636257
C     2.0637039655     1.8803896099     2.0025058481
C     2.8855157458     -1.4096055169     1.0995388997
C     3.2116050545     -0.0106242979     0.8939431186
C     2.3791403397     -2.2048362619     0.0419256876
C     0.2938096561     -2.5579756779     1.4308577554
C     1.0663835863     -2.8338524647     0.2168127556
C     -1.7432748186     -1.3816745109     2.3676855336
C     -1.1275349208     -2.2501320561     1.3480401341
C     -2.9128386046     -0.6134329641     2.033108952
C     -1.8697076743     1.4132120209     3.0055610069
C     -2.9699782351     0.7634884761     2.3921701418
C     -0.0840466892     2.7593243914     1.9936397148
C     -1.4393433626     2.4968764114     2.1041309305
C     1.7919406502     2.4151144826     0.6722857935
C     0.4780248642     2.9703408836     0.6707097859
C     3.0844425133     0.5550170447     -0.3844089278
C     2.3585097436     1.8413857374     -0.5140432196
C     2.7802524369     -1.7583342158     -1.2572354548
C     3.0456502039     -0.3718251034     -1.4779481539
C     2.1031793526     -2.241728608     -2.4238199117
C     0.3415035243     -3.1123558596     -0.979015001
C     0.9252946619     -2.9307905725     -2.2835658794
C     -1.7651235742     -2.3102213488     0.0241147371
C     -1.0274020468     -2.7432066661     -1.0839453136
C     -3.5153071999     -0.7275121395     0.7215177921
C     -2.9024132899     -1.4642259299     -0.2745817094
C     -3.3197536676     1.4999010441     1.1809760183
C     -2.2843447322     2.454632323     0.9152853113
C     -3.7538701914     0.6155510647     0.2039217417
C     -0.3308980357     2.9475778818     -0.5051120797
C     -1.7478773897     2.5864864019     -0.4067834933
C     1.6977235411     2.1296982975     -1.7217802266
C     0.3722222317     2.6897898769     -1.7129941112
C     2.4861644418     -0.001302922     -2.7909429096
C     1.9175311775     -1.1504978527     -3.3918150681
C     1.7959366629     1.2235662194     -2.898324593
C     -0.0681037506     -2.3071284405     -3.179446316
C     -1.2273174013     -2.1478727121     -2.451107306
C     0.5582649367     -1.1718439769     -3.8521927674
C     -2.8823413403     -0.6473774103     -1.5072413023
C     -3.2365155632     0.6983042271     -1.1120859297
C     -2.3283462643     1.7437287412     -1.4739044198
C     -2.0080439534     -0.9277240941     -2.568410571
C     -0.3159461681     2.1113685409     -2.8214643124
C     0.5687434165     1.2520236702     -3.5848329883
C     -0.1455027149     0.0491415335     -3.9163582639
C     -1.5609443417     1.4969339566     -2.6608808884
C     -1.4518017     0.1689036029     -3.2865876294


