58

 C     1.4740081971     -0.0369934302     4.2428640557
C     0.69810648     -1.2535461936     3.9283221459
C     1.5191870133     -2.0932431293     3.2152236313
C     2.6689623955     -0.0451601126     3.4375770003
C     2.798656161     -1.3430099784     2.9086072376
C     2.6257223085     1.0911213007     2.530694917
C     0.6974955531     1.0596863547     3.892734053
C     1.4618239013     1.8680151617     2.9515745511
C     -0.5651602764     -0.8592369652     3.3429605202
C     -0.593363558     0.5899022908     3.4266011228
C     -1.071994913     -1.4953729733     2.1611023671
C     1.0786201772     -2.7098197839     2.0163817343
C     -0.2454438148     -2.5072873749     1.4967582484
C     3.0755550323     -1.5475764104     1.5682150024
C     2.2029745286     -2.6565666712     1.1081286172
C     2.8636262069     0.9288945856     1.1297997699
C     3.2407004515     -0.4173819558     0.6520025559
C     2.198396818     1.8401121436     0.1654945869
C     0.7640573413     2.6003533298     2.0316387384
C     1.226909979     2.7374032542     0.6746926083
C     -1.3246665781     1.3392472608     2.4862889874
C     -0.6947965955     2.5108638389     1.9564354336
C     -2.0790626538     -0.7795670129     1.3722758453
C     -2.2719948042     0.639961977     1.631958044
C     -2.5324672418     -1.334040742     0.0979889279
C     -0.4554704202     -2.7811848748     0.0745837697
C     -1.6602894864     -2.2944985866     -0.594912667
C     2.0242498628     -2.881991699     -0.2170386307
C     0.6863373365     -3.0864173622     -0.7303403199
C     3.1019356047     -0.7185965106     -0.7159117749
C     2.7512662408     -2.0536417353     -1.1621381227
C     2.0589479011     1.4811353011     -1.2575990606
C     2.5525551248     0.2242385104     -1.6854986423
C     1.0002522565     2.0418181037     -2.0522786596
C     0.1013264243     3.1931661307     -0.1201142697
C     -1.0960859534     3.0517022603     0.7050935013
C     0.0117943912     2.9208316527     -1.4668085544
C     -2.9337058117     1.4409733678     0.6595902967
C     -2.2879644368     2.6499094055     0.1275053523
C     -3.4462601579     -0.5427457074     -0.6906227248
C     -3.6162460612     0.8315928459     -0.389899297
C     -3.4257616712     -0.6022050573     -2.1425145116
C     -1.6506056171     -2.269335244     -2.0322981678
C     -2.5130636438     -1.3931093095     -2.7633971149
C     0.7420257047     -2.6567452645     -2.1124738399
C     1.9731233531     -1.9332423485     -2.3086935667
C     1.8701391554     -0.5266289143     -2.6957478443
C     -0.3995184431     -2.2281971578     -2.7352587513
C     0.3268039822     1.302091433     -3.0865573644
C     -1.6858234781     -0.5621317928     -3.6850343107
C     0.7035504167     -0.0534756037     -3.3457512001
C     -0.3801298479     -1.0071938857     -3.5819133265
C     -1.2787379266     2.7076053062     -2.1162809889
C     -2.4426876165     2.643398694     -1.3160602363
C     -3.4207685301     1.6370121444     -1.6221326807
C     -3.2770019133     0.7812195461     -2.6860069851
C     -1.0700470422     1.7472631259     -3.1774270437
C     -2.0799917666     0.8106244125     -3.5023829355


