58

 C     1.0576583007     -0.0321734974     4.0922197486
C     2.2640658612     -0.2909062075     3.5289515099
C     2.2855352549     -1.7233656331     3.1169676437
C     0.2186621286     -1.2712161916     3.9729101371
C     0.9110054104     -2.2149482653     3.1585385578
C     -1.0426777519     -0.8419020632     3.6427001149
C     0.2692368697     1.1004718603     3.6594783657
C     -1.0697074687     0.6367290235     3.6277935414
C     0.7437589642     1.9303011256     2.5580590593
C     2.7687738985     0.5035270532     2.4008830638
C     1.9726413711     1.5504850108     1.8296401873
C     3.0246734998     -1.8027122429     1.979125679
C     3.3976154427     -0.4232487978     1.5494202722
C     2.563709177     -2.5072896665     0.833372403
C     0.3077753146     -2.6870711198     1.9411560909
C     1.2060920539     -3.0149976103     0.8246413417
C     -1.7003366611     -1.2894180864     2.4575753687
C     -1.0561430119     -2.20554855     1.5893898457
C     -1.97253522     1.0409101287     2.6401653401
C     -2.4280707833     -0.1363946897     1.9086262674
C     -0.2657047695     2.5978766641     1.8292992627
C     -1.6458768191     2.1756502808     1.895255751
C     -0.0666443573     3.0888604646     0.4876911129
C     2.0114894123     1.7303350791     0.3665861742
C     1.0433772145     2.6313676594     -0.2657910944
C     3.2848997812     -0.3764950255     0.1578608163
C     3.0169039465     -1.7464550991     -0.3079177972
C     2.650142862     0.7288354158     -0.4818573307
C     2.4393611106     -1.9455983877     -1.5401622094
C     0.634677901     -3.2084872033     -0.4603123006
C     1.3625179403     -2.8761830815     -1.6238672861
C     -1.5397585813     -2.2013347693     0.196456758
C     -0.7638950621     -2.8642897871     -0.7685267936
C     -2.8243837835     -0.0315944721     0.5767178707
C     -2.5059837877     -1.1767759852     -0.2894859225
C     -2.2602697029     2.388369789     0.6260705492
C     -1.3725864514     3.2337675994     -0.1497471133
C     -2.9698446409     1.3224119429     -0.0043294956
C     -1.4827213768     3.2616165325     -1.5314993036
C     0.8683905258     2.60398272     -1.7053041441
C     -0.2977454808     3.0701069041     -2.3160896378
C     2.1829634886     0.495242003     -1.8685709409
C     2.0931359192     -0.8278733417     -2.3859233884
C     1.3472797302     1.4563114635     -2.4887716695
C     0.4737524963     -2.448565275     -2.6783500295
C     -0.855586482     -2.5316859234     -2.1880570278
C     0.9279368734     -1.2117018054     -3.1952386936
C     -2.6970126832     -1.0183648295     -1.6856264658
C     -1.784376098     -1.6119527212     -2.638861405
C     -3.1444631614     1.439955198     -1.4196793583
C     -2.5011506312     2.4572713167     -2.150806207
C     -3.0908506028     0.24461581     -2.2375787292
C     -0.6195838435     2.1677368538     -3.4433493001
C     0.3822109668     1.1370651656     -3.4997281426
C     -0.0030246725     -0.2427444975     -3.6877202238
C     -1.406709229     -0.5670663014     -3.5847048692
C     -1.96485712     1.8456660155     -3.3996355426
C     -2.3777434818     0.4888920675     -3.4500604311


