58

 C     1.4129728357     -0.1805472539     4.7608873934
C     0.6129175125     -1.3202117408     4.571492777
C     1.1761891859     -2.1424139505     3.5536628832
C     2.5281346522     -0.288639464     3.7980314871
C     2.3566374143     -1.4991469673     3.0007829006
C     2.6501423105     0.9238282957     3.1231191556
C     0.6348073956     0.9458863668     4.3362353981
C     1.4253467997     1.7288985697     3.4692004248
C     -0.689375567     -0.9233894269     4.0479575262
C     -0.6862383727     0.4797477191     3.8277395062
C     0.1333128931     -2.5906859813     2.6689783919
C     -1.0614961536     -1.8005137209     2.9789199645
C     0.4344234871     -2.9027082303     1.3405867589
C     2.5124708618     -1.4767912197     1.5816392058
C     1.7177922103     -2.4357687511     0.7816640581
C     2.7771910515     0.9635733064     1.7228477012
C     2.8531221916     -0.2183808748     0.9137935752
C     0.9076091578     2.2237049389     2.2805178243
C     1.8919279221     1.9961563509     1.2166125057
C     -1.2269326393     0.993269417     2.5996858581
C     -0.4836522274     2.0507911416     1.9006894089
C     -1.8411379315     -1.3204651529     1.9166211054
C     -2.0107258868     0.1192006531     1.7355431039
C     -0.6857938242     -2.9374892514     0.4553419525
C     -1.8124566149     -2.1272103297     0.7350173834
C     -0.5457755701     -3.0015442863     -0.9832613416
C     1.8092878168     -2.3749352781     -0.6027784744
C     0.7246236536     -2.8297852664     -1.5020001611
C     2.63780108     -0.0459605008     -0.5102065615
C     2.4232110341     -1.236423903     -1.2794189297
C     1.5511849988     2.1097770816     -0.1044413042
C     2.1197889848     1.1875529755     -1.0779876
C     -0.8208258019     2.4036160026     0.587621154
C     0.2551303087     2.7202194084     -0.3830623493
C     -2.4690564111     0.597209445     0.4507678761
C     -2.0579513417     1.9070384934     0.0016115471
C     -2.355120087     -1.6738624718     -0.5105117257
C     -1.6610979892     -2.3019432498     -1.6026090532
C     -2.8719516821     -0.349633171     -0.6150754643
C     -1.5317493307     -1.6107439055     -2.8448719392
C     0.8617589371     -2.1349120404     -2.7477233115
C     1.9364241816     -1.1554925997     -2.5899587006
C     -0.1964651246     -1.5466116029     -3.4371674131
C     1.6200940288     1.2648871208     -2.4405396306
C     1.5336375747     0.047496137     -3.2023736082
C     0.2982178084     -0.2412034432     -3.9331817429
C     -0.0520278865     2.9969007023     -1.6930233402
C     0.6837932525     2.3061113623     -2.7815924469
C     -2.4156529013     2.367925398     -1.2951316382
C     -1.4264845859     3.1504827025     -2.0945426764
C     -3.0808065272     0.1214855285     -1.9275419743
C     -2.4000977243     -0.5072531969     -3.052667085
C     -3.1247284532     1.5453999236     -2.1969042933
C     -0.5761173049     0.7785406622     -4.2388936575
C     -0.2622591506     2.1285494801     -3.820662326
C     -1.5326932989     2.7602709032     -3.4244734508
C     -2.0133850304     0.573700969     -3.9428835729
C     -2.587896113     1.7824461961     -3.5220830541


