58

 C     1.2646084664     0.0750627779     3.5841673424
C     2.4470589133     -0.1955838975     2.9320997233
C     2.4347665761     -1.6092024867     2.4721629544
C     0.4128448016     -1.1101740155     3.4245304422
C     1.1097427154     -2.1011656331     2.6497029168
C     -0.8739544189     -0.6890552413     3.1045640674
C     0.5017493018     1.2140793059     3.2115534452
C     -0.8764580748     0.7643006721     3.0886983366
C     1.0163303292     2.1533524748     2.2666190298
C     2.9713669412     0.6377052629     1.9051583041
C     2.2639399028     1.8295531696     1.5230901417
C     3.0636226247     -1.6477684555     1.228136797
C     3.5045208445     -0.2693894708     0.8944230729
C     2.5184083142     -2.4704608138     0.2229771316
C     0.4219201793     -2.7713039112     1.5740491966
C     1.2089285748     -3.0694311343     0.430189245
C     -1.7009210271     -1.4574625963     2.1875389441
C     -1.0473082517     -2.5497767572     1.410893174
C     -2.8239703296     -0.7972332103     1.680420457
C     -1.8413078595     1.4663789123     2.3307285945
C     -2.9234166647     0.6905784532     1.7640940668
C     0.0230384581     2.9647626832     1.6211849748
C     -1.4112887902     2.6471483807     1.6716141826
C     0.2840817612     3.5014572448     0.3532765518
C     2.4023284086     2.2670151264     0.1280498207
C     1.3651763169     3.0932939736     -0.4383168529
C     3.5750476918     0.1064630683     -0.4232968807
C     3.0920278216     1.4276894407     -0.8077169934
C     2.5939104467     -2.0576173062     -1.1470780888
C     3.2075287771     -0.8409813531     -1.4873937403
C     0.590489227     -3.1982195021     -0.8718283059
C     1.382833019     -2.5033255538     -1.8441836934
C     -1.6414869109     -2.9179082319     0.1927449895
C     -0.7996472705     -3.2373177081     -0.9763916896
C     -3.4270384811     -1.2063833046     0.4297943615
C     -2.8405268305     -2.2441356027     -0.3059608001
C     -3.5417999275     1.1282890602     0.5959925825
C     -3.8213403868     -0.0192237753     -0.2567968734
C     -2.0097618753     3.003520558     0.3879397086
C     -0.9617061041     3.4667244551     -0.4347171833
C     -2.9765981784     2.1798862725     -0.2001632345
C     0.7887786163     2.7973860936     -1.7531705202
C     -0.6801565004     2.8967507407     -1.6758204515
C     2.6303649874     1.3127788961     -2.1563649325
C     2.6166116235     -0.065765907     -2.5128920583
C     1.3722976517     1.856354137     -2.5588487722
C     0.7416488554     -1.6735992536     -2.82182105
C     1.3414147489     -0.403185196     -3.1109107638
C     0.5514365912     0.7817946046     -3.1447737822
C     -1.3974007298     -2.6367203782     -2.1041698591
C     -2.6606439058     -2.0384886284     -1.7054174789
C     -0.6827073745     -1.7326490341     -2.9248195208
C     -3.3520684455     0.2765564088     -1.5543267216
C     -2.7455264322     1.6226694811     -1.5272173445
C     -1.5353034033     1.8710897797     -2.2280714218
C     -0.8851030412     0.754796871     -2.9816333197
C     -2.7494522377     -0.7577679404     -2.2934666114
C     -1.4919300356     -0.5161420158     -3.0188256006


