58

 C     1.6364896335     0.0763984576     4.0322830404
C     0.8395862991     -1.070436315     3.9224886687
C     1.3458097036     -1.9256298614     2.8780670915
C     2.5300247932     0.0741022801     2.9013721938
C     2.3775409933     -1.1648211226     2.1936874201
C     2.4027363098     1.2741447694     2.1550565175
C     0.7650159782     1.2115033475     3.8087527587
C     1.3615071668     2.0780264493     2.8246313476
C     -0.5652272281     -0.6435761149     3.8060753277
C     -0.5903787683     0.8110719114     3.6643965126
C     -1.4268961595     -1.4001818997     3.0624908701
C     0.4552094459     -2.7525154443     2.1393700912
C     -0.9688173978     -2.6192276654     2.3971603193
C     0.8564423423     -3.0763065628     0.8100284935
C     2.5101498655     -1.1998866975     0.7758271538
C     1.8848129869     -2.3013495655     0.1381331454
C     2.5145794127     1.3024634552     0.7276113025
C     2.6774156993     0.0440190167     0.0059129807
C     1.9159048069     2.4498928469     0.0497670412
C     0.5327370263     2.8883676477     2.096949219
C     0.9193274867     3.2475504002     0.7372553626
C     -1.4170695759     1.4550602746     2.6612937877
C     -0.9056008051     2.651846718     2.1048140752
C     -2.3988362209     -0.7420929948     2.1541465003
C     -2.3035317141     0.633018569     1.8097431687
C     -1.8535492803     -2.827207685     1.3257135488
C     -2.7451071909     -1.6837749662     1.1771437814
C     -0.0940889157     -3.4365552856     -0.2115912965
C     -1.4627740229     -3.2516874996     0.0310013123
C     1.6523824085     -2.3170517955     -1.2886123861
C     0.4478376498     -3.0708553708     -1.5075703746
C     2.5013136894     0.012311914     -1.4375879494
C     2.0285977284     -1.2219963146     -2.1163528026
C     1.8232476101     2.4100446648     -1.3556438494
C     2.2508641     1.2584503774     -2.0961476445
C     0.6636096624     2.9979642964     -2.0730805313
C     -0.2557092419     3.6105076688     0.0555859084
C     -1.3572033362     3.0713555583     0.8263747295
C     -0.4636364271     3.3385533225     -1.3131278386
C     -2.5745278539     0.997175294     0.3977364894
C     -2.1253189123     2.2720171706     -0.0430343238
C     -1.641688817     2.496027059     -1.4168252539
C     -2.8765020536     -1.3698047899     -0.1985922206
C     -2.2473819257     -2.4567263758     -0.9331435234
C     -2.7732587763     -0.0208986183     -0.6418403393
C     -0.4137583878     -2.6821584608     -2.5392003709
C     -1.7674532533     -2.2183847232     -2.1874915167
C     1.31221491     -1.1171795004     -3.3737952074
C     0.0864770403     -1.8125877021     -3.5142579181
C     1.5538258319     1.3003885863     -3.3718591314
C     0.4642171054     2.2808111331     -3.2468430247
C     1.0908252289     0.177866123     -3.9903603962
C     -1.7536680314     1.5196531004     -2.4339397913
C     -2.3420495619     0.2141502122     -2.0406197635
C     -1.9840603829     -0.9245667628     -2.8252834844
C     -0.9620762168     -0.8056106372     -3.8303312677
C     -0.7585554426     1.5838526576     -3.4998474446
C     -0.371976965     0.37447544     -4.1838905087


