58

 C     1.5685744979     -0.2452244178     4.3591688366
C     0.7179384595     -1.4160244816     4.3591688374
C     1.2491262111     -2.3766158135     3.445008494
C     2.6462971854     -0.4535749453     3.4450084927
C     2.5101159662     -1.8237059984     2.9375882225
C     2.6102557     0.6146715469     2.494001015
C     0.807272112     0.8945637089     3.9972592733
C     1.4663748752     1.4626984743     2.837294533
C     -0.6013198409     -1.0441967877     3.9972592746
C     -0.5276673386     0.3833727646     3.7434754259
C     0.2220259916     -2.6724446447     2.4940010172
C     -0.9379741577     -1.8466040641     2.8372945351
C     0.5094937222     -2.9270220918     1.1147300089
C     2.8079891375     -2.0401235263     1.625351869
C     1.907444086     -2.8330979393     0.7635425268
C     2.9412056531     0.4199422447     1.1147300066
C     3.283868895     -0.9386117179     0.7635425255
C     2.3520040754     1.2678676373     0.0869588124
C     0.7397388464     2.0843087324     1.8150150188
C     1.262061587     2.1606364394     0.4579163686
C     -1.2876238373     0.9355134798     2.7003536295
C     -0.7304152742     2.061435717     1.9597439516
C     -1.7537035264     -1.3476202682     1.8150150211
C     -2.1862526032     0.0576475389     1.9597439529
C     -0.4790045489     -2.6286814489     0.086958815
C     -1.6648888871     -1.8679652741     0.4579163713
C     -0.0463629825     -2.5672060312     -1.3240161345
C     2.2770857229     -2.5709705034     -0.5556154708
C     3.1487964356     -1.3711636389     -0.5556154716
C     1.3727377835     -2.444711138     -1.6010570897
C     2.4272310744     0.8374041063     -1.3240161367
C     2.7492577608     -0.5500939286     -1.6010570909
C     1.8037376383     -1.3104921057     -2.4107147833
C     1.6680859324     1.4705891797     -2.3074278558
C     0.4209683972     2.7680379859     -0.5842152835
C     0.7542172588     2.5460417504     -1.9788634219
C     -1.5094055297     2.6091625037     0.9541493593
C     -0.9347854644     3.0807885131     -0.3074342049
C     -2.9478929607     0.6292544115     0.9541493607
C     -2.7462769147     1.995286973     0.6280621021
C     -2.5024741759     -1.255735516     -0.5842152808
C     -3.2188685857     -0.062982199     -0.3074342028
C     -0.8831465231     -2.040881046     -2.3074278535
C     -2.1883636489     -1.5040734092     -1.9788634192
C     0.9502359552     -0.6903868357     -3.3235392023
C     1.0911223834     0.7459814155     -3.4518849398
C     -0.3722951295     -1.2682399908     -3.4518849384
C     -0.2045586077     2.6330319848     -3.004165608
C     0.0126253223     1.5109257148     -3.9326714214
C     -1.9594940321     2.96131496     -1.3398757245
C     -3.0160600548     2.1912958968     -0.767820598
C     -3.4218948466     0.9484929191     -1.3398757231
C     -1.5976973881     2.698881095     -2.6861964397
C     -2.5673743152     -0.6191048353     -3.0041656059
C     -1.4330743103     -0.4789091214     -3.9326714201
C     -1.2412409201     0.9018143133     -4.1608120184
C     -3.0605040986     0.6855003861     -2.6861964384
C     -2.257268157     1.6400013113     -3.394673797


