58

 C     1.3077138167     -0.025364966     3.8305899215
C     2.5158067197     -0.1701732501     3.1623395779
C     2.4560714136     -1.4243249302     2.3990716947
C     0.4716952167     -1.1863728194     3.5039998731
C     1.1699248672     -2.0458400588     2.6084851742
C     -0.8146737039     -0.7214159293     3.1829113621
C     0.5190582494     1.1611403001     3.687986044
C     -0.8285877196     0.740995825     3.311716742
C     1.0987973416     2.2679782567     3.0323676007
C     2.998017147     0.8657113086     2.2936949893
C     2.3506341593     2.0994147749     2.2826013644
C     2.9278093623     -1.2060925262     1.106553484
C     3.3316760227     0.2067778817     1.0127410729
C     2.3569554407     -1.9094037609     -0.0083058185
C     0.5018575245     -2.6584007197     1.5227839341
C     1.2542843948     -2.8273468578     0.2659091196
C     -1.5661043572     -1.4033256489     2.179948211
C     -0.9474028078     -2.4936850465     1.4439852678
C     -2.5806754141     -0.6283023109     1.522443881
C     -1.6054767744     1.4975745187     2.3982456512
C     -2.5236267359     0.7861513075     1.5581307656
C     0.2525322707     3.0902532287     2.2285007081
C     -1.0514488817     2.7238083612     1.8710850008
C     2.179381725     2.812384733     0.9914151865
C     0.9558016043     3.4897988429     1.010965593
C     3.172606084     0.8608328392     -0.1829011941
C     2.5876969773     2.1960859976     -0.2222345325
C     2.4203294326     -1.2650591984     -1.3098895707
C     2.7388152199     0.13431347     -1.3613729242
C     1.608343552     -1.7578099142     -2.3745304118
C     0.562547726     -3.3659699651     -0.8439002945
C     0.8418153578     -2.9167046602     -2.1661431232
C     -1.6014413934     -2.9371485531     0.2443994254
C     -0.8708798772     -3.5274162803     -0.784497706
C     -3.1221977394     -1.0182957166     0.2342439422
C     -2.7013757249     -2.1756777547     -0.3707578442
C     -2.9065178033     1.2867108609     0.2254320504
C     -3.3504936921     0.1866996476     -0.5547008742
C     -1.2295228233     3.0456199211     0.4462776527
C     0.0504836337     3.4400130264     -0.0863186824
C     -2.1696426099     2.3736841557     -0.3683291204
C     1.7710973338     2.2600579638     -1.3818980882
C     1.9484186016     1.0106549742     -2.1440007402
C     0.4808924776     2.9015478703     -1.3517227911
C     0.8675574048     -0.8627274492     -3.2720248263
C     0.9542257964     0.536770396     -3.0615678986
C     -0.4109882184     -2.7757810543     -2.9172432231
C     -1.4529459126     -3.1499372426     -2.0797781712
C     -2.5520804257     -2.2587057395     -1.8394925221
C     -0.4091337838     -1.5045167229     -3.5760241608
C     -3.1282423422     0.1516178176     -1.9578633509
C     -2.6698313858     -1.1023229875     -2.6077149168
C     -1.5900511382     -0.7334246791     -3.5327271478
C     -1.878880138     2.2714392449     -1.7759680304
C     -0.5150352151     2.403941998     -2.2231719384
C     -0.2463944826     1.3303290285     -3.1929846136
C     -2.4675577164     1.232548034     -2.5507427709
C     -1.4616380967     0.6866901377     -3.4600180233


