58

 C     1.2404038017     -0.0015775358     4.6348872353
C     0.5769500144     -1.1444491009     4.1092241592
C     1.5163515127     -1.9428448846     3.4007511992
C     2.5852089218     0.0163763291     4.0070130352
C     2.7880880191     -1.1859781867     3.2975707314
C     2.7597801861     1.2280632009     3.3059684373
C     0.550289946     1.1290511863     4.1171328432
C     1.4706533297     1.9541652678     3.4143079202
C     -0.6072182854     -0.7459271194     3.3690757942
C     -0.624268176     0.7080291949     3.3741338146
C     -1.0128107387     -1.4395842831     2.2046786866
C     1.2043650774     -2.5197038228     2.1620802968
C     -0.1166652306     -2.4290348882     1.6049144975
C     3.1601664735     -1.1895605618     1.9282236197
C     2.3292806841     -2.2069811647     1.2845534808
C     3.1315602889     1.2498949927     1.9367097577
C     3.3630849653     0.0353284028     1.1809745598
C     1.1451250352     2.5321514087     2.1796541845
C     2.2769927596     2.2520046103     1.3000648292
C     -1.0461097024     1.400067725     2.2145568895
C     -0.1734616034     2.4144083112     1.6217631001
C     -1.9189292622     -0.7523621428     1.3126042733
C     -1.9359372012     0.698008868     1.3176497836
C     -2.4161293634     -1.4488852248     0.1477997898
C     -0.2760721349     -2.7110430525     0.2006109069
C     -1.5266542776     -2.438380352     -0.4617396076
C     2.1530101096     -2.2329278824     -0.0704039861
C     0.9136258132     -2.7023641209     -0.6111078276
C     3.0751561656     0.0370365372     -0.2806223246
C     2.6387377376     -1.1584844627     -0.9274543361
C     2.1000517092     2.2832358225     -0.0546937906
C     2.6107708145     1.2264657271     -0.919157887
C     -0.3395519669     2.702362607     0.2194424644
C     0.8499564236     2.7272306667     -0.5922202197
C     -2.4494283622     1.3907672895     0.1576781396
C     -1.5834504014     2.4050639034     -0.4448906687
C     -3.3552713121     -0.7641403111     -0.6588126212
C     -3.3723211795     0.6898160223     -0.6537547616
C     -3.610810949     -1.1722038881     -2.0288769518
C     -1.5631945056     -2.5380469615     -1.8943967794
C     -2.6051439471     -1.9701616843     -2.6402221631
C     0.8602741769     -2.2414956872     -1.9651970725
C     1.8309163148     -1.1638383287     -2.1114962784
C     -0.3371328274     -2.2246530194     -2.6236708244
C     1.8029494719     1.2211117476     -2.1031998818
C     0.8073158956     2.2746683178     -1.9494867635
C     1.3828071709     0.025820319     -2.7611377091
C     -1.6224345791     2.5138097119     -1.8768230082
C     -0.3894208035     2.2343325362     -2.6081592593
C     -3.6374711424     1.1012959245     -2.0209680738
C     -3.863068713     -0.0354016628     -2.8453915805
C     -2.6508419503     1.926849625     -2.626665518
C     -2.0483876963     -1.2180325934     -3.791364854
C     -0.6376642914     -1.2147314467     -3.6383460884
C     0.1269534368     0.0138805622     -3.5622986852
C     -0.666270402     1.2247245372     -3.6298599517
C     -2.7880095405     -0.019235589     -3.8686377856
C     -2.0766956999     1.1960086135     -3.7829671501


