58

 C     1.554961657     -0.1344701224     4.0896765423
C     0.7467020386     -1.3125405359     3.9933225489
C     1.3798445346     -2.1879112488     3.0271658376
C     2.6444692829     -0.2121168639     3.2079636485
C     2.5199989465     -1.4585288457     2.4662176592
C     2.6785877862     1.0330575458     2.4756973273
C     0.7514321991     1.0186363709     3.7608499248
C     1.4221450466     1.7523789753     2.7358900477
C     -0.6058058223     -0.9050832755     3.8021777005
C     -0.5912369505     0.56866446     3.5697077354
C     -1.4302942756     -1.7069460703     3.0044954187
C     0.5631370871     -2.90779838     2.1574226053
C     -0.8522401544     -2.8107090532     2.3146382204
C     0.8210034349     -2.9425266962     0.7070452616
C     2.7796589788     -1.477572264     1.069545945
C     1.8985014323     -2.2407049922     0.1393765075
C     3.158356083     1.0164756546     1.2018759314
C     3.3888217334     -0.2841285199     0.5378007168
C     2.636701734     1.9219594277     0.1950034863
C     0.6929702499     2.3264267756     1.6574058784
C     1.355497747     2.51310306     0.3507075913
C     -1.3692778334     1.1342075688     2.5451785821
C     -0.7516488439     2.1705236441     1.6907710512
C     -2.3925928926     -1.0974466781     2.1026350033
C     -2.4355042075     0.3014691631     1.9394146338
C     -1.4706854153     -2.8967401541     1.0187155955
C     -0.463040213     -3.0031722504     0.0198591843
C     -2.4755108757     -1.9186628737     0.8992548041
C     -0.673674451     -2.4654425281     -1.2659425474
C     1.7743739467     -1.8654896373     -1.2835894934
C     0.5094094429     -2.0776378231     -2.0157840646
C     3.3454986272     -0.0435581184     -0.823454924
C     2.9849353387     1.3534117272     -1.0633788791
C     2.6233255853     -0.8335875374     -1.7627943682
C     2.2131429281     1.4432519029     -2.2075087648
C     2.162098614     0.0843995548     -2.7876776771
C     0.5639643172     2.7502230838     -0.8733330965
C     1.029185962     2.2656747492     -2.2048010232
C     -1.4639788132     2.6044456502     0.5545036037
C     -0.8185044292     2.9430440655     -0.7077902285
C     -3.0748516911     0.7702163534     0.7550726529
C     -2.7244164615     2.0287161286     0.2316661856
C     -2.7802055332     -1.3806714929     -0.3848330203
C     -1.9766357474     -1.8265232866     -1.5479035236
C     -3.3448193922     -0.0897030914     -0.3925559938
C     -2.1261199801     -1.1309230257     -2.7597787408
C     0.2908972063     -1.3979269745     -3.2464751242
C     1.1290172182     -0.2452117751     -3.6105827213
C     -1.0319915316     -1.0766881227     -3.6772269715
C     0.1011865557     2.0008885153     -3.2474819074
C     0.2617633365     0.813456296     -4.0741882439
C     -1.010308521     0.2471664999     -4.2520149125
C     -1.7676818727     2.6585616995     -1.7983988959
C     -2.9010531254     2.0341013853     -1.1959408652
C     -3.3043738558     0.7272780026     -1.5932917515
C     -2.7986830044     0.2006475102     -2.7874439046
C     -1.3358981864     2.1970045809     -3.0402644317
C     -2.0105549906     1.0510318965     -3.6166217663


