58

 C     1.2525268197     -0.0135049958     3.9653976765
C     2.4408300062     -0.2396244054     3.2908122139
C     2.3628543098     -1.5716927135     2.6887560135
C     0.4009344368     -1.1945626072     3.7800787928
C     1.0834908502     -2.1645953979     2.9693078217
C     -0.8607095873     -0.7206023915     3.3872915174
C     0.4824696078     1.1769732148     3.7089223614
C     -0.8370982744     0.7519506906     3.2860230132
C     1.1077395564     2.223460076     3.0134457101
C     2.8953163278     0.6919450088     2.2791048165
C     2.3251505548     1.9480901556     2.2247377612
C     2.8072098472     -1.4682494231     1.3623324203
C     3.1029114031     -0.0721043583     1.0367906808
C     2.2295011418     -2.2869992806     0.3843479344
C     0.3717646483     -2.8465260853     1.9176899788
C     1.053927536     -3.0576359203     0.6729218413
C     -1.5991133777     -1.4485307399     2.45509261
C     -1.0365574987     -2.5913916411     1.7926978567
C     -2.4770638057     -0.7759768745     1.5192194445
C     -1.5416919772     1.4075749122     2.2258527037
C     -2.3701172269     0.6179394619     1.2889282156
C     0.2960702865     3.0376385258     2.19636177
C     -0.9853971345     2.6437238773     1.7569419474
C     2.1747857833     2.5967069294     0.9227262987
C     1.044758058     3.4319937294     1.0055698813
C     2.8178140539     0.4511043296     -0.2415200123
C     2.4372947124     1.8774688305     -0.3169835617
C     2.1683051964     -1.8420956024     -0.9752687667
C     2.385875967     -0.4843150163     -1.3166910686
C     0.3479505181     -3.2475489679     -0.5795551476
C     1.1200030445     -2.6140138444     -1.6110274114
C     -1.7396454998     -2.7568082508     0.5351313551
C     -2.6989525815     -1.6936452886     0.4427010416
C     -1.086035155     -3.2100249284     -0.659334928
C     -3.1241088815     -1.2188499695     -0.8040402199
C     -2.6318117491     1.1260753828     -0.0861668694
C     -3.0854130582     0.2204787078     -1.0676180947
C     -1.126169319     3.0498679693     0.3456851131
C     0.1600319613     3.5801753847     -0.0742077823
C     -1.9395400436     2.3431684557     -0.5599282017
C     1.7610308245     2.3333465096     -1.4641427492
C     0.6464700651     3.2584391114     -1.3466349235
C     1.7120078028     0.0365933808     -2.5259040419
C     1.4679142996     1.4477083531     -2.6070090369
C     0.5202377173     -2.1663780522     -2.7874704713
C     0.8305156826     -0.807765925     -3.2744264266
C     -1.6756245898     -2.856315606     -1.9261251257
C     -2.7760203077     -1.9316879985     -1.9608669254
C     -0.8321714531     -2.4620477402     -3.0203535595
C     -2.7703904021     0.3673467355     -2.4991913743
C     -0.3790974287     -0.3004445754     -3.8910364151
C     -2.5826283951     -0.9627358326     -3.0410005811
C     -1.4064143522     -1.2913615227     -3.6942887769
C     -1.5809266794     2.4388349626     -1.9689488073
C     -0.2980967398     2.8992098772     -2.3209888748
C     0.2876917461     1.9122855233     -3.2247956474
C     -1.9324219884     1.381992787     -2.9166210665
C     -0.7221672688     1.0459430823     -3.6927218834


