58

 C     1.3168046055     -0.0826738318     3.4832319815
C     2.4219823601     -0.2760381243     2.6282209553
C     2.3221124463     -1.6595799114     2.1502029825
C     0.4663015709     -1.2569176445     3.4758890833
C     1.0080010137     -2.1796770582     2.5466376863
C     -0.8828061413     -0.8303585592     3.4455950865
C     0.4966184046     1.0854097163     3.4759536776
C     -0.9030670156     0.6410912161     3.5379660034
C     0.8593681358     2.1135235333     2.6011313473
C     2.775674381     0.7762708658     1.7047479132
C     1.9778578179     1.9638070727     1.7127761201
C     3.3671309755     0.3884135144     0.4545306096
C     2.8379302979     -1.9921318152     0.9221870331
C     3.54136719     -0.9844899274     0.1682469449
C     2.0791840315     -2.8118427935     -0.0270888378
C     0.1650065714     -2.8085271116     1.5797433332
C     0.7362419254     -3.1789298408     0.2631150047
C     -1.7429143153     -1.4774478268     2.5471350305
C     -1.2289297164     -2.4703254735     1.6462047947
C     -2.7830540865     -0.7140173963     1.858240354
C     -1.8836630862     1.3608189167     2.8885022982
C     -2.9143741738     0.6607663136     2.1000522953
C     -0.1832255373     2.8787327035     1.910615787
C     -1.5282992616     2.5716276093     2.1348135389
C     1.6019883858     2.5981695731     0.4604126446
C     0.2878985911     3.2042167297     0.5934703615
C     3.0120094726     1.0351441338     -0.7941321662
C     2.0994575696     2.1288200527     -0.8109242084
C     3.3150881061     -1.2129029974     -1.2276452691
C     2.455164237     -2.3430079668     -1.3588638668
C     2.9623006253     0.0181514021     -1.836217992
C     1.5236620425     -2.3602500934     -2.4141588985
C     -0.159377922     -3.3025760535     -0.860325509
C     0.2789049028     -2.9686280425     -2.1513535804
C     -2.027593747     -2.3706387285     0.4344008214
C     -2.9225156811     -1.2272886782     0.5245405071
C     -1.5263731788     -2.7796066436     -0.7756259032
C     -3.1450706813     -0.3790654079     -0.612512952
C     -3.2668292422     1.4830575946     1.0034278574
C     -2.4097458956     2.6524461328     1.0150709699
C     -3.3356047601     1.0083375618     -0.3301251232
C     -0.5974866282     3.2520707207     -0.5293441903
C     -1.9932573872     2.9645594024     -0.2960067058
C     -2.6990129486     2.0257000467     -1.1752817502
C     1.2658634378     2.3168325491     -1.9506193568
C     -0.0547371102     2.900002647     -1.8117961172
C     1.9457517704     0.0700317444     -2.8604734985
C     1.2757018178     -1.149819153     -3.200597614
C     1.2094621458     1.304655987     -2.9971051437
C     -0.7659387206     -2.2018040133     -2.8433429558
C     -1.8736069757     -2.0444276998     -1.995656092
C     -2.5446571103     -0.7709253649     -1.9098073524
C     -0.1525696527     -1.130026548     -3.5243540818
C     -2.1292101163     1.6535233888     -2.3675414298
C     -0.8842192841     2.2636890346     -2.7628333412
C     -0.1161513943     1.3054757975     -3.5001292387
C     -2.0931692921     0.2504273499     -2.7904318401
C     -0.8573737599     0.0881513947     -3.5527680079


