58

 C     1.5076068811     -0.2969191896     4.2662028155
C     0.7483106375     -1.4543340532     4.3571624771
C     1.2318388556     -2.3218009928     3.2993977666
C     2.4932748806     -0.4026566874     3.198377056
C     2.3023272198     -1.6464740714     2.5379957111
C     2.5092457385     0.8206063816     2.456625354
C     0.6988979948     0.8493661729     3.9248786163
C     1.4020204105     1.6362340247     2.9321525032
C     -0.6117222837     -1.0487383803     3.9722845457
C     -0.6229566703     0.4091553435     3.6722169361
C     0.1391223733     -2.7120049672     2.5259121111
C     -1.0341536057     -1.8577823678     2.9388542069
C     0.2781204479     -3.0340094139     1.1651671216
C     2.3407071373     -1.6901493563     1.0970885697
C     1.4418913924     -2.6013548726     0.3984045032
C     2.8022859364     0.798156337     1.0768950045
C     2.7984586375     -0.491951453     0.3822103961
C     2.4116531311     1.9699129895     0.3578275691
C     0.6753671978     2.4153070612     2.0371823161
C     1.3699197154     2.7995372364     0.8442912659
C     -1.3277156672     0.94526003     2.5422657367
C     -0.7745238261     2.1615478543     1.9202585269
C     -1.9191067926     -1.3697320634     1.9132234675
C     -2.1384164694     0.0621627571     1.7177949205
C     -0.9724392857     -3.1716889953     0.4858269237
C     -2.0745197545     -2.2173701904     0.821795744
C     -1.0145601538     -3.3974082554     -0.8619959084
C     1.3158975749     -2.553304021     -1.0538406864
C     0.1390638746     -3.1015170669     -1.6894720299
C     2.6395744898     -0.4490945177     -1.0241221129
C     1.9667220294     -1.4855956786     -1.7465302946
C     2.3415302764     2.0040341407     -1.0919485616
C     2.4936176356     0.8045189086     -1.7674690115
C     0.6835718617     3.3900939498     -0.2849964591
C     1.3447184547     2.9693657014     -1.508825868
C     -1.4093322258     2.6592120702     0.7927723499
C     -0.7143171748     3.4683536113     -0.2329939838
C     -2.6465462828     0.5091957086     0.4307632832
C     -2.4399834583     1.8894474589     0.1083347864
C     -2.6731345473     -1.8093703459     -0.4101646382
C     -2.178731118     -2.6886548698     -1.4254394011
C     -2.8953225391     -0.4171400618     -0.6775011725
C     -0.3841790577     -2.4998322944     -2.8638113466
C     -1.8082325362     -2.197007165     -2.6536137478
C     1.4012112774     -0.882430138     -2.9483739696
C     1.6961405395     0.5381067967     -2.9449624903
C     0.1856153116     -1.3517135453     -3.4611763871
C     0.5879623768     2.731446605     -2.6760819316
C     0.7605586975     1.4745065849     -3.3949680021
C     -1.4446480744     3.3382420997     -1.43958867
C     -2.4941229903     2.3382638757     -1.2216601365
C     -0.8166563842     3.0239334907     -2.6497821183
C     -2.7197608515     0.03883308     -2.075127567
C     -2.0597512836     -0.8417937411     -3.0140474671
C     -0.8808932516     -0.3736318186     -3.7219922242
C     -0.582575825     0.988148718     -3.7656842872
C     -2.5388398719     1.4370774279     -2.3250940421
C     -1.5300909758     1.8954341475     -3.2428980492


