58

 C     1.2646901951     -0.1167935548     4.0857487488
C     2.3636582311     -0.3158528927     3.276317885
C     2.1915384314     -1.5850501604     2.5491203438
C     0.3791416885     -1.297528525     3.8917813297
C     0.9230999763     -2.1359362368     2.831088891
C     -0.9013401638     -0.8363069475     3.7681979783
C     0.46797004     1.0812759167     3.9215976989
C     -0.8916012898     0.6547208556     3.8250691718
C     0.9008177101     2.0720102798     3.0108003263
C     2.8025085341     0.6546507013     2.3088855673
C     2.1190345334     1.8709903194     2.2319831883
C     2.6787526009     -1.4174649071     1.2331681766
C     3.1178440663     -0.051101626     1.06682971
C     2.0658210509     -2.1380163788     0.1777687374
C     0.1001636302     -2.5840823424     1.7325361375
C     0.7815684596     -2.8016765697     0.4401736618
C     -1.7606437241     -1.265052332     2.7130605763
C     -1.3081957985     -2.2184729382     1.7231656543
C     -1.7521872631     1.1051453784     2.8229715959
C     -2.4230624542     -0.0809546426     2.2573729113
C     -0.051734059     2.6789902276     2.1001025188
C     -1.3737806144     2.1723977405     1.9248465294
C     1.9639548942     2.5064094614     0.9307389425
C     0.6746302972     3.1396776424     0.929717743
C     3.008862542     0.5674529137     -0.2024657468
C     2.4936337071     1.9377129352     -0.2749695888
C     2.3539776498     -1.6556705598     -1.1286429899
C     2.798198805     -0.3090352296     -1.3121595928
C     1.563542603     -2.0579511244     -2.2740772397
C     0.004019255     -3.1222902598     -0.6840954932
C     0.4572600543     -2.8966528394     -2.049197092
C     -2.0459835217     -2.2597265987     0.4685493659
C     -1.4531407901     -2.9395948357     -0.6498391014
C     -2.9669915315     -0.0266621079     0.9923780528
C     -2.9584351675     -1.2097770992     0.1492832161
C     -1.9957364219     2.219611118     0.5774914456
C     -2.8550765715     1.1337625635     0.1743197659
C     0.013666834     3.371454547     -0.2695568909
C     -1.3556315505     2.916746099     -0.4683637631
C     1.8872440523     2.3536215384     -1.5040412604
C     0.7272525256     3.1574430914     -1.4732111065
C     2.2156764058     0.1472045159     -2.5735654964
C     1.4871463012     -0.9505486744     -3.1954048584
C     1.7488061012     1.4458770357     -2.6572939418
C     0.269315748     -0.6891296972     -3.8743848893
C     -0.7086672466     -2.6940553715     -2.8536053922
C     -1.8830787796     -2.6755147208     -1.9554239968
C     -0.8043135167     -1.6254609171     -3.7214055811
C     -3.1548492834     -0.7597865962     -1.1963958288
C     -2.9705371438     0.6832879523     -1.2025630139
C     -2.684334836     -1.5320302141     -2.2720269577
C     -2.04064391     -0.8732493626     -3.3739846482
C     -1.4638984717     2.4701803611     -1.8561794566
C     -0.2005903647     2.6676270956     -2.4670381283
C     0.4388706308     1.6826019837     -3.2739452513
C     -0.3118984149     0.6302946159     -3.7842242332
C     -2.2263274542     1.3160765995     -2.2352752482
C     -1.7199872312     0.4842027834     -3.3317290624


