58

 C     1.501089877     0.0238706289     4.319991313
C     0.6814239108     -1.1601233755     4.0192939435
C     1.4490629624     -2.0592284165     3.2750441222
C     2.6469525327     -0.0405634036     3.4244816128
C     2.7128430422     -1.3202434868     2.8830939568
C     2.5728679209     1.0650404283     2.4884645689
C     0.748358094     1.1302067838     3.9600403969
C     1.4153648306     1.8394837807     2.8776423736
C     -0.6061111859     -0.7744223475     3.5259669606
C     -0.6104280225     0.6796790465     3.642622212
C     -1.1783598501     -1.3788342644     2.343500887
C     0.935574767     -2.6429752831     2.1167436724
C     -0.4108179207     -2.3859553911     1.6200287646
C     2.9478166782     -1.5556429189     1.5164247048
C     2.0314237255     -2.619133366     1.1463464042
C     2.8538154951     0.8706874103     1.0868242048
C     3.1064937841     -0.4824778305     0.5591195482
C     2.2531672754     1.7957759017     0.1910375402
C     0.6445478175     2.5676688375     1.9133335825
C     1.1717403851     2.6712513934     0.6133128832
C     -1.3739192932     1.4139506871     2.785178111
C     -0.8073575217     2.5401576046     2.0148174291
C     -2.1694173567     -0.6170789671     1.5924543811
C     -2.3194085051     0.7643310934     1.9366887115
C     -2.5695783743     -1.0059841381     0.2389673839
C     -0.6786018369     -2.6424781758     0.2093764362
C     -1.783828966     -1.9933544106     -0.4927312064
C     1.7918650377     -2.8918651402     -0.1410955785
C     0.4233328145     -3.1591174422     -0.5932136602
C     2.8746404843     -0.7831005341     -0.8487466089
C     2.4672946402     -2.1351007808     -1.1823003176
C     2.0694513731     1.5281045526     -1.1960766902
C     2.4089276474     0.2719024339     -1.765292278
C     0.3378852479     2.9431580755     -0.5305220859
C     0.9226710022     2.2984619787     -1.6648382254
C     -1.6294064283     2.7589342566     0.9065832806
C     -2.7004916148     1.7405296742     0.9589624372
C     -1.0852753619     3.0658773977     -0.4087009538
C     -3.3765167836     -0.0736059875     -0.5044596579
C     -3.3650200638     1.353011791     -0.1583400706
C     -3.3954900465     -0.087555938     -1.9213685302
C     -1.7559068864     -1.9148574338     -1.971906299
C     -2.486707852     -0.9018512713     -2.6439481336
C     0.4697708733     -3.0294036103     -1.9724559732
C     1.7655440175     -2.4326839283     -2.3572998381
C     -0.578860094     -2.3700004047     -2.6915509954
C     1.7113351073     -0.0636246611     -2.9834010965
C     1.4473822414     -1.4236741988     -3.2715458202
C     0.0388274033     -1.5282315381     -3.6442281111
C     0.1295556039     1.9073094532     -2.7841311987
C     -1.803445067     0.0056121676     -3.618209474
C     0.5499116138     0.715928561     -3.4477516435
C     -0.4584677473     -0.2249722096     -3.8957267684
C     -1.8804645506     2.7760975387     -1.5473835431
C     -3.1771814217     2.1269931004     -1.3831122668
C     -3.3784616727     1.2698960814     -2.455411826
C     -1.2749103404     2.2471786005     -2.7704235051
C     -2.2265034319     1.3270415852     -3.3201694767


