58

 C     1.2088993859     0.2106567301     4.0179042382
C     2.4394354377     0.0441444189     3.3845437851
C     2.4947147007     -1.3235316596     2.8768153571
C     0.3784492662     -1.0099663493     3.7268454801
C     1.159819375     -1.8776453235     2.9412584201
C     -0.8744487525     -0.5660204917     3.2707335955
C     0.4307855056     1.3347208289     3.7908630887
C     -0.9209865086     0.8679443895     3.4652729784
C     0.7956859466     2.2837728026     2.7844918583
C     2.8256717501     0.9256838478     2.320963312
C     1.9997292848     2.0705494481     1.9984005895
C     3.1558619902     -1.3073945705     1.6506184428
C     3.3579879434     0.0849299295     1.2517825977
C     2.7882277014     -2.2704774179     0.6862850148
C     0.5648932107     -2.5304688411     1.7766450507
C     1.4633779929     -2.9132609732     0.7646739814
C     -1.5094172737     -1.1465581669     2.1078111608
C     -0.8339584021     -2.2129304725     1.4010724285
C     -2.4862202364     -0.3049097933     1.4154812333
C     -1.4681083499     1.7020600863     2.5047372604
C     -0.429989268     2.6507954288     2.1031086911
C     -2.4064891279     1.1737542759     1.557841874
C     -0.4441871679     3.1411838821     0.7844872138
C     1.9339144442     2.4564887121     0.6168519803
C     0.7816312119     3.0944273669     0.0488059088
C     3.2113632096     0.4393179075     -0.1202436539
C     2.5443430879     1.657907557     -0.4267613659
C     2.9936181102     -1.9699546741     -0.6578368414
C     3.1020595847     -0.6139181275     -1.1092837586
C     1.0042122491     -3.1483110294     -0.5983615668
C     1.9944799181     -2.637384909     -1.4675891109
C     -1.3191101542     -2.5926948665     0.0729157061
C     -0.3694593791     -3.0523084549     -0.954517984
C     -3.0590245379     -0.8107737995     0.24715732
C     -2.5424435428     -2.0128323233     -0.3693554393
C     -3.5830155447     0.0754951446     -0.8130437477
C     -2.6962098093     1.9917561925     0.4612691649
C     -1.6801973332     2.9914634416     0.0515272329
C     -3.3118600864     1.4631999032     -0.73000375
C     -1.6770837676     3.0063648404     -1.344227757
C     -2.6977551347     2.097227971     -1.8449871503
C     0.7419481848     2.7663185502     -1.3642125132
C     1.770923898     1.8033929899     -1.6339088091
C     -0.466093074     2.7179388149     -2.0512884688
C     2.2699856068     -0.4739645717     -2.2802139233
C     1.642321832     -1.7810370994     -2.533546921
C     1.5291363915     0.7132185518     -2.5290564612
C     -0.6149347049     -2.6774016685     -2.3229708613
C     0.3636588881     -1.8786485076     -3.0326515822
C     -2.8468546901     -1.905112218     -1.7732320067
C     -3.4237486213     -0.5763924854     -2.0431761206
C     -1.884497073     -2.1750278377     -2.7186697013
C     -2.1883966219     1.3494859004     -2.9331571033
C     -0.7437653623     1.6488242281     -3.0136151946
C     0.2091305825     0.6268956609     -3.2273377176
C     -0.3247870209     -0.6909097076     -3.5535589877
C     -2.6514928821     0.0238751306     -3.1022785527
C     -1.7017322928     -0.9539586324     -3.5320779148


