58

 C     1.3150098293     0.0711987182     3.6587152706
C     2.4972645484     -0.1790118195     3.0032519262
C     2.4936114724     -1.5784585959     2.5607714446
C     0.4683193969     -1.1552673689     3.5312882916
C     1.1780699621     -2.1268818227     2.7822896784
C     -0.8164690327     -0.7406925911     3.1901970324
C     0.5290076823     1.2093458206     3.3758646574
C     -0.8483987987     0.7275418559     3.30344091
C     0.987208947     2.1832258917     2.4176918325
C     2.9127096331     0.6471703294     1.9017686788
C     2.177516068     1.8516356449     1.6076713807
C     3.0853651106     -1.6312346625     1.3032739145
C     3.3466679594     -0.2414565506     0.8569871755
C     2.5866878058     -2.5723357491     0.379442789
C     0.4942323516     -2.8222311102     1.7208364988
C     1.3032344747     -3.1975965486     0.600477001
C     -1.5737670636     -1.4100382409     2.1629805071
C     -0.9303545863     -2.5269570246     1.4891360246
C     -2.6038513323     -0.6096725636     1.468268062
C     -1.7998712854     1.4552082812     2.6395954027
C     -2.6915113571     0.7875756345     1.6972369008
C     -0.0435420397     2.9863053794     1.8177314689
C     -1.4154921926     2.7062328215     2.0686257274
C     0.050957116     3.4698141749     0.4441396479
C     2.1879710093     2.2653561769     0.2417438026
C     1.1368178366     3.0892052303     -0.3211901969
C     3.1630637453     0.0935222362     -0.5159341587
C     2.634557395     1.3876854715     -0.8033257517
C     2.7109235083     -2.3121004608     -1.0206883184
C     2.8755874009     -0.9598199381     -1.4601550515
C     0.7253857235     -3.4001530609     -0.7317313813
C     1.6245049797     -2.8916816675     -1.730313655
C     -1.4732459103     -2.9146927503     0.2126172219
C     -0.638382545     -3.2887027539     -0.9017731487
C     -3.082117373     -1.0483001232     0.1884096725
C     -2.6040968985     -2.2598332676     -0.3333150495
C     -3.3235991577     -0.1274694982     -0.9276949779
C     -2.9466053627     1.7181607023     0.6068470448
C     -2.1580076057     2.8713662082     0.8573164102
C     -1.2941068332     3.4148719214     -0.1551277623
C     -3.1461691805     1.2680456515     -0.7474137729
C     -1.4765944703     3.0260977871     -1.4668135972
C     -2.4985196076     2.0182395368     -1.803746646
C     0.9613380994     2.7284105161     -1.725554682
C     1.8476924333     1.6346712981     -2.0039887949
C     -0.3072303693     2.7740387282     -2.317486893
C     1.9610695476     -0.7453997971     -2.5581085209
C     1.1315692527     -1.9252969804     -2.6631150671
C     1.4388969832     0.5462047165     -2.8448390188
C     -1.1717198559     -2.6012385155     -2.1050142178
C     -2.4390146239     -2.1158268948     -1.7717331316
C     -2.8539881771     -0.7984934617     -2.1283016032
C     -0.2761894121     -1.8092990023     -2.9413064369
C     -2.0229898874     1.3283660742     -2.9381830544
C     -0.6662360724     1.7595576855     -3.2417267359
C     0.1266947985     0.6152002586     -3.447058431
C     -2.0926925855     -0.0835922466     -3.0715460396
C     -0.7571714542     -0.5605196749     -3.4114302808


