58

 C     1.0763915191     -0.1176403937     3.9596766613
C     2.2372891564     -0.4130096882     3.2813458286
C     2.2234946814     -1.8295002888     2.8523923238
C     0.2418590595     -1.3285365843     3.8766381882
C     0.8888037857     -2.3049344151     3.0447819783
C     -1.0380478036     -0.9089976937     3.5664538965
C     0.2745489937     1.0148970402     3.5415434374
C     -1.0656215435     0.5543273247     3.5275000955
C     0.7099874926     1.878430341     2.4618687106
C     2.6911944035     0.3728200867     2.1822561248
C     1.9519401937     1.5353484375     1.7571166567
C     2.8845198695     -1.9278391702     1.6205102333
C     3.2338442343     -0.5535548766     1.2056591659
C     2.3865617208     -2.8128795722     0.6635401893
C     0.1900270148     -2.8722507694     1.9083277944
C     1.0322292031     -3.3134426308     0.8461235619
C     -1.7199051783     -1.3694724762     2.3920059591
C     -1.1556099983     -2.3491620834     1.536707259
C     -1.9610474658     0.9575349548     2.5237622962
C     -2.4461841734     -0.2208581635     1.8468798883
C     -0.3211852191     2.6161435524     1.740502183
C     -1.7117291513     2.143368748     1.7897695674
C     0.0594846758     3.2976414151     0.5411128953
C     2.086572591     1.9078662768     0.3517714691
C     1.1826659786     2.8440318264     -0.1965845177
C     3.2317617103     -0.2424290614     -0.1435067401
C     2.7070403487     1.0110214125     -0.5779825282
C     2.5229368189     -2.5168839934     -0.7670464932
C     2.9343659836     -1.2458204516     -1.1672493293
C     0.4855779654     -3.4934961257     -0.4519253124
C     1.416525167     -3.1076622247     -1.4595679077
C     -1.6080233726     -2.3399165628     0.1271185805
C     -0.8218051823     -3.0353246669     -0.823162839
C     -2.8719909465     -0.1578917838     0.5101226147
C     -2.5091470563     -1.2703955413     -0.3851523639
C     -2.5544683588     2.2999739962     0.6524741661
C     -3.1235288772     1.1533413389     0.0036834756
C     -0.9233966955     3.7187229116     -0.4327129657
C     -2.2022801143     3.2294860647     -0.3807622863
C     0.8298647822     2.8424239137     -1.6431170868
C     -0.4119927771     3.4439830516     -1.7916461285
C     2.1968786239     0.8265658261     -1.9217398743
C     2.2723626595     -0.5630787103     -2.2562279861
C     1.2093516496     1.7129589817     -2.4742985385
C     0.7093592083     -2.4307673658     -2.4934463038
C     -0.7091529495     -2.5701975819     -2.1854004623
C     1.179346036     -1.1662562066     -2.9847793213
C     -2.5619304982     -1.0164261588     -1.7728996445
C     -1.6097214478     -1.6432390079     -2.6739811181
C     -3.1372896026     1.4028127697     -1.448280395
C     -2.5663804872     2.6671333807     -1.6974840117
C     -1.4462684629     2.8098447574     -2.5817863192
C     -2.8608977176     0.3323327657     -2.3158304845
C     0.2659276501     1.1845072035     -3.3816292969
C     0.2158112598     -0.279522339     -3.5708472266
C     -1.1461946245     -0.6349530142     -3.5655797456
C     -1.1001882561     1.7139229599     -3.3986188436
C     -1.9445364967     0.5648982849     -3.3683991301


