58

 C     1.3482282836     0.1275153081     4.105863593
C     2.5202914655     -0.0831135557     3.3208669472
C     2.4785514558     -1.4179213394     2.8430629492
C     0.5069442286     -1.0917318119     4.0303912521
C     1.1531781376     -1.971218651     3.1532508189
C     -0.8579644596     -0.6772550619     3.7706670897
C     0.5352270385     1.2082279234     3.8324917729
C     -0.8701392565     0.7513952777     3.7227033575
C     0.7999861134     2.1225020699     2.7602298596
C     2.8387125589     0.7975913899     2.219765308
C     1.9893391248     1.931751745     1.9576454718
C     2.948470023     -1.4149579726     1.5052063504
C     3.2394172371     -0.031359142     1.1047857365
C     2.3451570814     -2.2399689568     0.5664799728
C     0.3985279124     -2.6485446543     2.0899756283
C     1.0640318005     -2.9107331956     0.8612833493
C     -1.6241930222     -1.3521690661     2.813983962
C     -1.0074754534     -2.4109344417     1.9975672901
C     -2.4980152678     -0.6188021646     1.9507171684
C     -1.4815315008     1.4524146234     2.6830118969
C     -0.4605342561     2.349927637     2.1042785047
C     -2.401475089     0.8035671267     1.7994939468
C     -0.566070482     2.7564191819     0.7553195235
C     1.8949906743     2.3533268408     0.6065606638
C     0.6720202107     2.9122426068     0.0646270892
C     3.1016865126     0.3706699153     -0.2493440958
C     2.5635533666     1.6737747378     -0.4663276415
C     2.396724359     -1.9316711168     -0.8319313448
C     2.8270896634     -0.6413543133     -1.2864258657
C     0.368349303     -3.0302369062     -0.3786563047
C     1.2581722387     -2.5723866587     -1.4356344441
C     -1.686399915     -2.464232323     0.7372476879
C     -2.6990928661     -1.4289407145     0.7639592137
C     -1.0256182295     -2.7667348075     -0.4950602487
C     -3.185279451     -0.8652356718     -0.3770068608
C     -2.678755444     1.4007992918     0.4969403776
C     -1.7830942436     2.4453947843     -0.0179076324
C     -3.3530950636     0.5779215921     -0.4586183917
C     -1.7219158222     2.6648401111     -1.4267327438
C     0.7300357561     2.8409533763     -1.3656741987
C     1.8984170544     2.0287000026     -1.7100403275
C     -0.4317412275     2.7793856342     -2.1034189499
C     2.3227621672     -0.2195691022     -2.5533212023
C     1.8521391291     1.1592191616     -2.7736821471
C     0.7556562693     -2.133029705     -2.6470439032
C     1.4127061773     -1.0358398508     -3.2597365871
C     -1.5666558211     -2.2098066136     -1.7628084078
C     -2.7473358367     -1.3580107761     -1.6921805287
C     -0.6898665996     -1.9696248042     -2.8491421921
C     -3.323519841     0.8835114435     -1.8397847038
C     -2.5614711664     1.9300526697     -2.3195626077
C     -2.9681771213     -0.3314941789     -2.6132725102
C     -0.4620510208     1.9643044256     -3.3340929389
C     0.6539285309     1.1295254071     -3.627661785
C     0.4052007914     -0.2278841781     -3.9346999422
C     -0.8752248012     -0.8280172669     -3.7525489848
C     -1.7602753624     1.4405079084     -3.4592319458
C     -1.9925260645     0.0263368297     -3.5968273256


