58

 C     1.5777900884     -0.1653739602     4.8585449326
C     0.7351035517     -1.2456032716     4.9202090676
C     1.2853414064     -2.3909124475     4.2055663165
C     2.6473718497     -0.5355767002     3.8929539152
C     2.4406272376     -1.9115016954     3.490598324
C     2.6480655528     0.4464703548     2.8953189737
C     0.8200873443     0.9406629894     4.2537469575
C     1.535313443     1.4102123204     3.1564582502
C     -0.5808820242     -0.8700668956     4.3207136838
C     -0.5451692874     0.5153405181     3.9659350313
C     0.3161941697     -2.7097952674     3.2196675492
C     -0.8486437839     -1.8314256334     3.3100911371
C     2.2401265617     -2.1802472205     2.0781182422
C     0.9203273989     -2.7938711856     1.921667423
C     2.8695286168     0.1159163277     1.5092652038
C     2.6150077669     -1.2604198866     1.0716689626
C     2.5835802974     1.1411316004     0.5983868541
C     0.8647406288     2.0639476601     2.0574338821
C     1.6248229743     2.1838036882     0.8816616709
C     -1.1787899664     0.9353238618     2.7520543754
C     -0.5747722016     1.9592505126     1.9125580119
C     -1.5337460865     -1.4477262707     2.1240992082
C     -1.9537757256     -0.0600435877     2.0295139189
C     0.1565591879     -2.5893008572     0.7616979669
C     -1.2210417109     -2.0921497619     0.8698472697
C     2.0576400949     -1.4463885962     -0.2560247684
C     0.8495093968     -2.2013866005     -0.436321399
C     2.4998688213     0.8904036862     -0.8154196452
C     2.316224498     -0.437858205     -1.2722641143
C     1.042188796     2.5690258015     -0.3751872938
C     1.7679658413     1.9509499062     -1.4642109291
C     -1.174208568     2.3008202812     0.6288884376
C     -0.3540172185     2.7861621806     -0.4979118348
C     -2.5634715349     0.3325902887     0.8444626389
C     -2.3571925026     1.6274415751     0.2497457187
C     -1.8992295214     -1.6900340964     -0.327408777
C     -2.7829611465     -0.580605304     -0.2410070139
C     0.1090255745     -2.1339142622     -1.6911197152
C     -1.3359934807     -1.9880267419     -1.6485890759
C     1.7584752405     -0.5881603142     -2.55780297
C     0.7973882637     -1.6440206161     -2.8385535753
C     1.2221167229     1.8098012524     -2.7493826639
C     1.4517502358     0.5387266533     -3.4224083374
C     -0.8689264803     2.791761271     -1.8264989076
C     -0.0407376808     2.4760288752     -2.9960058194
C     -2.8180253081     1.5672260693     -1.1172964279
C     -3.1486787469     0.1789281323     -1.4051957118
C     -2.22116595     2.3429351309     -2.1283585574
C     -2.0080617697     -1.4776344511     -2.8040734296
C     -2.9240961111     -0.3505372095     -2.6722144904
C     0.1119027637     -1.2801833711     -4.0145761715
C     0.5426131436     0.0774540765     -4.4040960224
C     -1.2964498205     -1.2612318634     -4.0506711461
C     -0.9006103222     2.0060395875     -4.019118307
C     -2.2507950902     1.8888849821     -3.473738932
C     -2.6571858441     0.5572734292     -3.7811536332
C     -0.6108012221     0.815794834     -4.7843071549
C     -1.7578283641     -0.0563116035     -4.7099570993


