58

 C     1.3996446576     0.0327925142     4.0145515616
C     2.5235082237     -0.1823643146     3.2010291631
C     2.4401612819     -1.5515250968     2.6515612399
C     0.5557817278     -1.1854814919     3.9382441016
C     1.2423729521     -2.1702278791     3.1448416076
C     -0.731805989     -0.7573989832     3.5469615219
C     0.5944120358     1.1763877549     3.8433478284
C     -0.7259751151     0.6904766318     3.5605986728
C     0.9269005685     2.1461832744     2.8380355861
C     2.8530432073     0.7192194735     2.1654392588
C     2.1321198517     1.9707420586     2.0565350606
C     2.6751232004     -1.471846775     1.2736171881
C     3.0096152291     -0.0899847863     0.959314546
C     1.9378694521     -2.2661850858     0.3216868417
C     0.5157648314     -2.9615407618     2.2816613706
C     0.9969947338     -3.1817578648     0.9156618493
C     -1.4776269366     -1.4548622915     2.5303272235
C     -0.9274356549     -2.7229192623     2.135976645
C     -2.2415330928     -0.68763664     1.5373931923
C     -1.2523013311     1.4103093852     2.4670140553
C     -0.2783011533     2.4427797113     2.104676594
C     -2.0375170409     0.7749871369     1.4662192088
C     -0.2610223752     3.029301413     0.8242088317
C     2.1437035602     2.5648400397     0.7931834824
C     1.0452471843     3.3513689128     0.3099178103
C     2.8120456751     0.4153252569     -0.3334359362
C     2.699820434     1.8654797453     -0.3911362161
C     1.7102676736     -1.7558001957     -1.0302337595
C     2.1891897115     -0.4048109953     -1.3778831733
C     0.6327528417     -2.3491378475     -1.8264600799
C     -0.1116428113     -3.5937134443     0.1531826461
C     -1.3117041434     -3.2871022998     0.9098974479
C     -0.3090303325     -3.2245886165     -1.1854803349
C     -2.7127108018     -1.3667731486     0.3426233048
C     -2.2314646363     -2.6811038984     0.0359849541
C     -1.7414869831     -2.9454068913     -1.3217786732
C     -3.1301795935     -0.5728482714     -0.7872920927
C     -2.2028057584     1.5238303012     0.2083034512
C     -1.3358965781     2.6818828852     -0.1156515256
C     -2.8687465208     0.8707527977     -0.8459481926
C     -1.1372852102     2.9965514831     -1.4950466542
C     1.2332683983     3.4814456801     -1.0952120082
C     2.2444435855     2.4926903434     -1.5262512674
C     0.1779968703     3.3800619544     -1.9515819387
C     1.6617051659     0.2981962664     -2.5667696487
C     1.707008746     1.7482974225     -2.6310128045
C     0.5430539841     2.4610972425     -3.0575858787
C     0.124553929     -1.6459339798     -2.9718428578
C     0.6192725882     -0.3112591886     -3.3217173946
C     -2.1996852539     -2.2025164906     -2.3776954975
C     -3.0690906578     -1.0822747402     -2.094376168
C     -1.2345000882     -1.7203970405     -3.3267806894
C     -2.6666891384     1.2346983159     -2.2344425176
C     -1.7000119481     2.1772170755     -2.5425578397
C     -0.6054984259     1.8041571844     -3.4804127138
C     -0.482054959     0.4521825006     -3.8710024178
C     -2.726691933     0.0126511679     -3.0021955751
C     -1.6369478383     -0.3785076379     -3.77021237


