58

 C     1.2220207489     0.0143051028     4.1416373691
C     2.4095290908     -0.3001625297     3.5303035118
C     2.2550382038     -1.6215918946     2.8230847206
C     0.3595386309     -1.1860482516     4.0284367305
C     0.9449818281     -2.0755920739     3.0175293756
C     -0.9237850211     -0.7625777055     3.8752165336
C     0.4415905309     1.1476377962     3.6566489164
C     -0.907891028     0.711686441     3.68534477
C     0.8798320664     1.902585453     2.4946155795
C     2.9920463457     0.583765771     2.6168177576
C     2.243135633     1.6672737416     2.0764287065
C     2.8302063959     -1.5084615465     1.5364134381
C     3.4449501234     -0.2110099306     1.473315983
C     2.1330301426     -2.0034250207     0.3750601302
C     0.1530338375     -2.5040347031     1.8757734021
C     0.7912559503     -2.5499361994     0.5530814853
C     -1.7953311143     -1.3302412699     2.9040090136
C     -1.2939202114     -2.286276983     1.9447714117
C     -1.8281255328     1.0089345481     2.6892951789
C     -2.5709039644     -0.2253344062     2.3965211526
C     -0.109315373     2.289597547     1.4608365682
C     -1.492817196     1.8760548707     1.5892018279
C     0.3676886113     2.675705995     0.1094052743
C     2.5812628512     1.7304466963     0.6613877076
C     3.3426432883     0.5408406224     0.3135759282
C     1.7499542562     2.3225436015     -0.290069755
C     2.528318886     -1.4386591651     -0.9109147668
C     3.126389108     -0.103398777     -0.9313256255
C     1.7795007111     -1.8059225231     -2.0683550592
C     -0.0619095067     -2.6548035482     -0.6458832623
C     0.471949559     -2.3204523808     -1.9246529737
C     -2.0720686516     -2.4108380371     0.7467023808
C     -1.4700768479     -2.6122799429     -0.5206812309
C     -3.2849016168     -0.348356302     1.2244911175
C     -3.2237791595     -1.5761673312     0.5308039991
C     -2.3812820856     1.8275148208     0.4182939646
C     -3.3129420907     0.7498240008     0.2589830612
C     -0.550128507     2.8759628282     -0.9286686862
C     -1.9440775326     2.4676206779     -0.7769819447
C     -0.1877875937     2.7086214614     -2.3477293783
C     2.0542895313     1.9946765578     -1.6522712111
C     2.7904028377     0.7980953054     -1.9737939402
C     1.0892040993     2.2441903146     -2.715509269
C     1.7894949361     -0.9864568905     -3.2635655027
C     2.252465266     0.307106038     -3.20101396
C     1.2100440212     1.2233319186     -3.695539373
C     -0.3689470085     -1.7140054312     -3.0035296819
C     0.436463459     -0.9458758484     -3.8285818787
C     0.0822173132     0.4459701863     -4.0923679451
C     -2.3111741888     -1.9187070891     -1.5501661659
C     -3.3550772875     -1.2868554504     -0.8645948812
C     -3.5158931259     0.1431074118     -1.0363813545
C     -1.7344201939     -1.3225206729     -2.7135984435
C     -2.3809727561     2.0070013178     -2.0379656817
C     -1.3020161892     2.1244151192     -3.0000721895
C     -1.2030999488     0.9023584746     -3.7292451406
C     -3.0027245103     0.7411121199     -2.1877350083
C     -2.1671100509     -0.0222948453     -3.1167926468


