58

 C     1.1009994937     0.0586828687     4.1115018161
C     2.2643996256     -0.2381162652     3.4901480626
C     2.2129014902     -1.6713696559     3.0644812163
C     0.2230748704     -1.1596792757     4.0302182564
C     0.8353615734     -2.1010154558     3.1261463916
C     -1.0355743292     -0.705364573     3.804152262
C     0.3217473324     1.2083239798     3.7034807574
C     -1.0322785256     0.7883741179     3.7877681467
C     0.7404063276     1.9902854515     2.5481112806
C     2.759022131     0.5473723313     2.353478199
C     1.9589793469     1.5888542037     1.7871729473
C     2.9041437689     -1.7634563737     1.9002987865
C     3.3577833595     -0.3970815282     1.487211168
C     2.3514320703     -2.3952712386     0.7590922275
C     0.1507304349     -2.5021672248     1.9177081609
C     0.9651916006     -2.7580438422     0.7155537818
C     -1.8144210635     -1.1561715595     2.6873839483
C     -1.2381391773     -2.0299782607     1.7051928648
C     -2.0013780232     1.2018120586     2.8810855227
C     -2.5927544538     -0.0057014308     2.277353303
C     -0.3031534943     2.6189029504     1.8256819284
C     -1.693462061     2.2730097344     2.0232003488
C     -0.1489481436     3.0238522148     0.4377417794
C     2.0003221771     1.7781203971     0.3223076689
C     0.988765302     2.6228080599     -0.3187919657
C     3.2808918027     -0.3151883642     0.1079452334
C     2.910233725     -1.6673691142     -0.3647487104
C     2.6835279099     0.8131499044     -0.5295704568
C     2.4004689362     -1.8494955268     -1.5897312394
C     0.3480115306     -2.8426600691     -0.6187959851
C     1.2114822376     -2.67155554     -1.7522352987
C     -1.8016650397     -1.9722588872     0.3468874426
C     -1.0648662687     -2.5085936417     -0.8050516523
C     -3.0920505544     0.0635979972     1.0028268866
C     -2.8151004283     -1.0037669263     0.0741836595
C     -2.3632104796     2.3952459663     0.7581816434
C     -1.4581905304     3.0486817496     -0.1691007096
C     -3.1284776416     1.3250598742     0.2758219651
C     -1.6049859963     2.8615646882     -1.540956759
C     0.8237334808     2.5769479259     -1.7470084319
C     -0.4356404971     2.8192444132     -2.3281927492
C     2.3246387348     0.6295660674     -1.9560703108
C     2.3271672018     -0.7247000872     -2.525671487
C     1.479260658     1.5530760431     -2.5732469011
C     0.7185019433     -2.3182285795     -3.028576671
C     1.4358132528     -1.1005273412     -3.5237361454
C     -1.5226268939     -2.1606763832     -2.124829593
C     -0.624515513     -2.1222884784     -3.2355439041
C     -3.0231428787     -0.4566960764     -1.2459442787
C     -3.1402390533     1.0032815857     -1.1368033337
C     -2.506613447     1.8202806316     -2.0647056951
C     -2.430347116     -1.0408755676     -2.3345336263
C     -0.6333585067     1.8751316244     -3.4350846821
C     0.5646872955     1.1642912324     -3.6605931218
C     0.4719833097     -0.1952351144     -4.0586712622
C     -0.8082866581     -0.844946696     -3.971006724
C     -1.8779675246     1.2222221214     -3.2408017465
C     -1.9242686345     -0.1932610854     -3.4323142348


