58

 C     1.5067700574     0.0168794713     4.1824907418
C     0.7121639161     -1.1552263515     3.8958679917
C     1.4855314288     -2.0664113187     3.1740359099
C     2.6739807951     -0.0714245154     3.322509885
C     2.7201499339     -1.3566810994     2.7475784031
C     2.6979515096     1.0480090099     2.4248775001
C     0.766204686     1.1119119209     3.7014913216
C     1.5231515366     1.8577925381     2.7336383437
C     -0.5911273541     -0.7492875092     3.341400949
C     -0.5541041194     0.6900987534     3.2726846165
C     -1.2196298505     -1.48043875     2.3073775891
C     0.9393056041     -2.7038737579     2.0461676451
C     -0.4688282218     -2.6039493945     1.7392596033
C     2.8476988846     -1.5474939763     1.3512906519
C     1.8738146682     -2.5613719108     0.949442657
C     3.0447325294     0.8829446271     1.0493738782
C     3.0835667681     -0.456831428     0.4496770666
C     2.6545662806     1.9770728282     0.2144849458
C     0.8426840829     2.6195531635     1.7523911493
C     1.5692143276     2.8712154037     0.564462062
C     -1.2719933996     1.3979038596     2.2853439265
C     -0.6242797851     2.5463321868     1.6570301643
C     -2.2102872776     -0.7890764109     1.4648203937
C     -2.3111397392     0.6584534031     1.5710403675
C     -2.6928525734     -1.4419749085     0.2488396483
C     -0.8191483297     -3.0803850095     0.4769409753
C     -2.0366550878     -2.6338450944     -0.209545805
C     1.472860895     -2.7615095547     -0.3764892622
C     0.1714060176     -3.357596429     -0.5242255333
C     2.6972934503     -0.6410314273     -0.9578543319
C     1.9626683934     -1.8345061583     -1.4007343722
C     2.5993681853     1.805359273     -1.1787239568
C     2.5674144237     0.5274166165     -1.7721289639
C     0.9090986412     3.2901544882     -0.6733884074
C     1.5646828757     2.6506879759     -1.764120373
C     -1.2366996697     3.0840359128     0.4994412711
C     -0.4645813623     3.386554213     -0.7140075224
C     -3.0212459206     1.3778156282     0.5596523366
C     -2.4864595081     2.6076407373     0.0826571495
C     -3.3333383134     -0.6514733902     -0.784270375
C     -3.575849267     0.7019558806     -0.5705223471
C     -2.9572947306     -0.8172724892     -2.2066208502
C     -1.8969755133     -2.9177963018     -1.5864574262
C     -0.5038615336     -3.2970380666     -1.7714873015
C     -2.2166711444     -1.9211473182     -2.5802173737
C     1.2109614817     -1.7617770216     -2.6169191607
C     0.0334899715     -2.5388430459     -2.8029484413
C     -1.0358644016     -1.6963560373     -3.3734012285
C     1.5764804071     0.6324261645     -2.8439922707
C     0.8630426107     1.9148369216     -2.7249473299
C     0.9094628358     -0.4791071454     -3.2424624601
C     -0.5316186141     -0.4112543692     -3.5788774834
C     -1.2080927559     2.8670822397     -1.8665896307
C     -2.5155803791     2.5711876112     -1.3911252187
C     -3.1928499505     1.4358701518     -1.7860401309
C     -2.6149548993     0.506913769     -2.7047992643
C     -0.5806524186     1.976826978     -2.8134036837
C     -1.3070810876     0.7700484629     -3.2499686087


