58

 C     1.2361855169     -0.1059256672     4.1474370962
C     2.3586178466     -0.2160586304     3.3514645229
C     2.2558812754     -1.4375425689     2.5403780137
C     0.4003880106     -1.299657811     3.8910508853
C     0.9886832204     -2.0590596846     2.806675523
C     -0.9122379693     -0.8934976658     3.7863147206
C     0.3816198137     1.0699806543     4.0435103705
C     -0.9519411427     0.5870628046     3.8588309634
C     0.7922347944     2.1450495067     3.2472148607
C     2.8065666806     0.8605106589     2.5065440147
C     2.1031092307     2.0909162624     2.5789016911
C     2.660358803     -1.1126949897     1.2398249317
C     3.0884982626     0.2934535589     1.2078237691
C     2.0212230039     -1.7175005669     0.1169494563
C     0.1965978606     -2.5058446689     1.7245278972
C     0.8544812592     -2.5627501155     0.4015972263
C     -1.7544238503     -1.3424310061     2.7380647343
C     -1.2496606995     -2.2430556266     1.7441943082
C     -1.7954262588     1.0283561054     2.8259848394
C     -2.4394221847     -0.1574742675     2.2633491953
C     -0.1509947329     2.7256990803     2.279123428
C     -1.3888586726     2.0947408626     1.9359262203
C     2.0090238596     2.837765402     1.3859606355
C     0.6073705216     3.2737561037     1.2162321705
C     2.9230338258     1.0123263082     0.0054098309
C     2.4499659032     2.3730461894     0.1443336996
C     2.1914779505     -1.121687269     -1.1970550655
C     2.62723616     0.2772702567     -1.2276192395
C     1.4758402854     -1.7086614899     -2.3395190605
C     0.1033080324     -2.984367035     -0.6910258169
C     0.4872353453     -2.7144355267     -2.0440755822
C     -1.9885240606     -2.3269573677     0.5021138327
C     -1.3733271549     -2.9868253375     -0.6132886874
C     -2.9395760682     -0.1086652433     0.9917606633
C     -2.9170976326     -1.2931510251     0.1675477179
C     -1.8236487094     2.0666889269     0.515672704
C     -2.7046998602     1.0190618913     0.1239591485
C     0.2429829501     3.2170324224     -0.1287436766
C     1.470162966     2.8563992199     -0.8329279947
C     -1.0017271844     2.6262703676     -0.5485793486
C     2.1732825622     1.0521595561     -2.3345343882
C     1.3983039136     2.2754587837     -2.0408192929
C     1.2581482133     -0.9176670494     -3.53636703
C     1.560139407     0.4656705976     -3.4341995383
C     -0.0072773522     -0.9834917112     -4.2487903212
C     -0.7263116646     -2.7817746031     -2.8246936499
C     -1.8663678259     -2.8389254602     -1.9031257287
C     -0.9946629236     -1.8811065228     -3.8485448934
C     -3.1302151078     -0.8819900195     -1.1919559056
C     -2.8431696808     0.5488637076     -1.2387857444
C     -2.7170834824     -1.7165542071     -2.2344283244
C     -2.2064016938     -1.1139034957     -3.4214471168
C     -1.095916421     2.1279923248     -1.9241126729
C     0.1136463961     2.1393078568     -2.7117064171
C     0.3318633096     1.2344710863     -3.7783482766
C     -0.6192032705     0.3444552373     -4.2106728474
C     -2.088992034     1.1130809475     -2.301655514
C     -1.8802995326     0.2568099626     -3.4816569375


