58

 C     1.5492157729     0.1087644092     4.3439642261
C     0.7853595073     -1.056958715     4.1737922185
C     1.5143015903     -2.0078857103     3.3804734436
C     2.6733859976     0.0066148573     3.4064001426
C     2.6399230182     -1.293149338     2.8194825275
C     2.5855557565     1.0786687033     2.5007507283
C     0.727864482     1.1902248769     3.8619987921
C     1.4420081604     1.9276049696     2.8930642304
C     -0.5782721307     -0.6899165694     3.7367044428
C     -0.6060219166     0.7465161678     3.5119170247
C     -1.2176991525     -1.5070228902     2.8322739253
C     0.8719888066     -2.7301253564     2.3479595886
C     -0.5239324834     -2.6397094084     2.2089492092
C     2.6519770308     -1.5242696415     1.4000074165
C     1.6675001001     -2.5605062601     1.1214475196
C     2.8216023136     0.896297538     1.0740068769
C     2.7856425374     -0.4487103498     0.4778323115
C     2.4438813298     1.9694857594     0.2816559239
C     0.7549805128     2.6924233418     1.9424196523
C     1.5409321785     3.0191300189     0.7859387861
C     -1.2829647925     1.3130003131     2.3894551445
C     -0.6855493565     2.4912312425     1.7643451299
C     -2.0936478541     -0.9450086979     1.8158180748
C     -2.1387501911     0.4466778427     1.556421429
C     -1.0958901776     -2.823974668     0.9253902325
C     -2.1696167138     -1.8803610018     0.730856383
C     1.1184349082     -2.7172457718     -0.1385198338
C     -0.291763376     -3.1314746476     -0.2123338768
C     2.2889466079     -0.6196399177     -0.8874816094
C     1.6256763658     -1.8675796789     -1.2298417604
C     2.2128949583     1.8309509704     -1.1514807286
C     2.0481806608     0.5343879621     -1.7446417195
C     0.9371166297     3.5997653248     -0.3111023287
C     1.4048577697     2.9091281514     -1.5500491
C     -1.2617492481     2.9683308577     0.5583311798
C     -0.4573891279     3.6862372908     -0.3899936847
C     -2.5633606783     0.8590828501     0.2078389885
C     -2.2128182338     2.1663035624     -0.1945890641
C     -2.643681688     -1.5508400678     -0.5650483227
C     -2.9028342337     -0.1425139485     -0.8375195025
C     -0.943975521     -3.0975995103     -1.4407884114
C     -2.2218898457     -2.4382848098     -1.6159505351
C     1.005466604     -1.9838389618     -2.4840551334
C     -0.1720098577     -2.8427948454     -2.6447014801
C     1.1763014424     0.4426659439     -2.9248517779
C     0.8232547341     -0.8623411271     -3.3747151542
C     0.3224280461     2.7319200083     -2.4313477503
C     -0.8321469403     3.2467372088     -1.7205292717
C     -1.9809824605     2.4456071609     -1.6105312335
C     0.2230682845     1.5347249938     -3.1980069454
C     -2.8578966067     0.2393562121     -2.2272943166
C     -2.1670065821     1.4598674453     -2.566620339
C     -1.1219638171     1.1516056782     -3.542926665
C     -2.2586788101     -2.0224960905     -2.9922151323
C     -0.9890160647     -2.3666682092     -3.6596316924
C     -0.4100660353     -1.112969441     -4.1090825166
C     -2.5584532719     -0.6980357715     -3.2620128681
C     -1.4027189486     -0.1313902357     -4.0316328039


