58

 C     1.5888221765     0.002802421     3.9158902038
C     0.7911772543     -1.1047282189     3.6809804535
C     1.409751065     -2.0211392429     2.7239730408
C     2.6487585502     -0.0663192403     2.9344108471
C     2.5816940972     -1.352960178     2.2345302097
C     2.5785137913     1.0660963753     2.1281784596
C     0.7511567726     1.1509703835     3.5761020774
C     1.3728781205     1.8527515284     2.5427074393
C     -0.6062206765     -0.6995128345     3.5143407536
C     -0.6163629686     0.7519138851     3.3692523794
C     -1.405855479     -1.4583537865     2.6917154533
C     0.5746598733     -2.7487700996     1.8257434212
C     -0.8575571875     -2.5281606655     1.8676868404
C     1.1241038291     -3.113699832     0.5842166618
C     3.0009932897     -1.4832909518     0.8755389661
C     2.4123365367     -2.5841914007     0.1620492506
C     2.9844526587     1.0243296823     0.7454778951
C     3.3267136751     -0.2599215396     0.1193450258
C     2.4993381424     2.0851631543     -0.038954038
C     0.5994501078     2.5463085015     1.5744050374
C     1.3228765429     2.86781269     0.390269425
C     -1.4369018311     1.3707295365     2.3745663552
C     -0.8497723112     2.3876997425     1.5140409073
C     -2.5074838318     -0.8376461154     1.9924774621
C     -2.5768432981     0.5854406801     1.8629090872
C     -1.6530516499     -2.5705261776     0.6882823713
C     -2.7827652579     -1.6647091503     0.8531861315
C     0.2872089451     -3.1975398146     -0.6088084972
C     -1.0716822579     -2.7658302426     -0.6074541404
C     2.4333930155     -2.6142578904     -1.2604211203
C     1.0886061265     -2.9291765184     -1.7309125212
C     3.2578027439     -0.3095300664     -1.3120170731
C     2.8540499948     -1.502951088     -1.970120736
C     2.416161137     1.9956432503     -1.4817146227
C     2.6926672202     0.7867616855     -2.0822138858
C     0.6389291035     3.2940656274     -0.7596595862
C     1.2898452834     2.7560924795     -1.931742751
C     -1.5500775853     2.7762571381     0.2689588556
C     -0.7705507394     3.2241530277     -0.8633328274
C     -3.3170756413     1.0828661078     0.7567150581
C     -2.8096730199     2.1994193975     -0.0260826735
C     -3.4334155179     -1.1547473792     -0.2475169783
C     -3.9332099484     0.1783499467     -0.1733173259
C     -1.5798195651     -1.9910366552     -1.7561242234
C     -2.8258424737     -1.322476365     -1.5924984215
C     0.6873533006     -1.9896302531     -2.7348224338
C     1.8244206677     -1.163588708     -2.9762969971
C     1.6981395038     0.2266255651     -3.0261636718
C     -0.6310167299     -1.4400495544     -2.725277947
C     0.2716189537     2.1746989768     -2.7115834217
C     -1.0072046837     2.6533536902     -2.1820800402
C     0.4022444313     0.822221833     -3.1906096254
C     -0.7853616536     -0.0471372683     -3.1631212274
C     -3.1918227916     1.9524819102     -1.4159503471
C     -3.8960845599     0.7504651038     -1.4872698255
C     -3.1182370424     -0.1485754446     -2.3293587991
C     -2.1459127779     1.9316385563     -2.427059455
C     -2.0503154607     0.5733437954     -2.9554648559


