58

 C     1.5342946515     -0.0435117591     4.2573709386
C     0.8087070602     -1.27423427     3.9797440475
C     1.6054396015     -2.0521045132     3.1466652042
C     2.6794942117     0.0065869209     3.3396017273
C     2.8120732813     -1.2461250334     2.7505742967
C     2.5658527962     1.1503337011     2.462914858
C     0.6901374097     0.9966655574     3.8920915229
C     1.3603684583     1.8490960608     2.9109411175
C     -0.5203376052     -0.9431655688     3.492456255
C     -0.6336911285     0.4985574007     3.5431842445
C     -1.112165733     -1.6427252123     2.3934703173
C     1.1011728252     -2.6810421888     1.9890308877
C     -0.2835403849     -2.5759393432     1.6258287088
C     2.9966951318     -1.3949481671     1.364030852
C     2.0801410438     -2.4511146311     0.9441101345
C     2.8151930379     1.0508743361     1.0592117724
C     3.1212176412     -0.2640415818     0.4875303639
C     2.1488394143     2.043591107     0.1803848667
C     0.5774691059     2.5573157131     2.0357289009
C     1.0309204836     2.7911109311     0.6752134872
C     -1.430551431     1.2007054861     2.6123950259
C     -0.8520788936     2.3690703075     1.9969488943
C     -2.239179271     -0.9985993852     1.7216773273
C     -2.4213172401     0.4592431818     1.8493618481
C     -2.755997111     -1.6367331317     0.5562328196
C     -0.6193493246     -2.8376457231     0.2254522714
C     -1.8876267124     -2.4585692595     -0.2480909256
C     1.7566950252     -2.6000494358     -0.3846274123
C     0.4221656988     -2.9082764648     -0.761082947
C     2.9062787292     -0.5013873744     -0.9431269052
C     2.3389921728     -1.7307626399     -1.3847505737
C     2.1827447015     1.8842080615     -1.2117087541
C     2.69204173     0.6323735309     -1.8091417096
C     1.1506910723     2.4022324718     -2.0763956432
C     -0.1039424891     3.065314371     -0.1389002125
C     -1.2712728507     2.7948547882     0.6951924406
C     -0.1148514729     2.8080437659     -1.5421560004
C     -3.071977892     1.1578033869     0.7885582578
C     -2.4188598069     2.2747270463     0.1405821718
C     -3.5895384322     -0.9280602317     -0.3623045458
C     -3.7114176637     0.4429978538     -0.2611673942
C     -2.1188328272     -2.1400545771     -1.6735323463
C     -3.1806985544     -1.2373223329     -1.7313760945
C     0.2490313711     -2.4613731368     -2.1430018467
C     1.4758407668     -1.8008275932     -2.5389669494
C     -1.01593318     -2.024252792     -2.6017730139
C     2.1182042221     0.4845543729     -3.0673989312
C     1.1876565765     1.6108022788     -3.2701921918
C     1.4290076447     -0.7276110924     -3.4461895036
C     -1.0425316899     -0.911253643     -3.5408186784
C     0.0314904946     1.1385530353     -3.8387182553
C     0.1614461527     -0.3426613483     -3.9678596162
C     -1.361451652     2.3284430923     -2.1726859406
C     -2.5181580908     2.1177581327     -1.325681495
C     -3.4077798324     1.0629344587     -1.5652880293
C     -3.0850554875     0.0080493367     -2.4823355983
C     -1.2528743937     1.4376166228     -3.2944229665
C     -2.0092913816     0.1899750906     -3.3327910798


