58

 C     1.6032207759     0.1700005243     4.3313036625
C     0.8249809732     -1.0334594144     4.0732443698
C     1.6011062922     -1.8676074039     3.2877261557
C     2.7779782688     0.1462768638     3.4553513518
C     2.837696336     -1.1123452025     2.8682486816
C     2.7685611726     1.3058467818     2.5923369028
C     0.8346138415     1.2513686733     3.9190422649
C     1.6142557051     2.0991645491     3.0337790208
C     -0.4617144191     -0.6437995575     3.5129969526
C     -0.4714717416     0.7969658234     3.4468296792
C     -1.0581167774     -1.3812327211     2.4535559484
C     1.080223563     -2.5454072662     2.1593772988
C     -0.2953740507     -2.4544169413     1.7984195158
C     2.9589781083     -1.2864596772     1.4703777684
C     2.0552735284     -2.3749564283     1.0987989052
C     3.0074492785     1.1682566074     1.1771680092
C     3.0876347044     -0.1724648108     0.5681822371
C     2.4746953507     2.2186707363     0.3495605129
C     0.9281308154     2.8771975555     2.1308870627
C     1.546563022     3.1286022587     0.880782944
C     -1.1339481702     1.4796989772     2.3766577042
C     -0.497881791     2.6255763045     1.8271964404
C     -2.0665453114     -0.7088021725     1.6540956894
C     -2.0604440542     0.737339947     1.5289912124
C     -2.6726945767     -1.4810179148     0.6196069554
C     -0.6533962783     -2.8574624532     0.4375850993
C     -1.924539803     -2.5302345549     -0.0578461707
C     1.7028393308     -2.5593790953     -0.2056226399
C     0.3746445908     -2.9863113407     -0.5558121411
C     2.6807560313     -0.3825363496     -0.8300465542
C     2.1589314136     -1.6446093453     -1.2208835004
C     2.1044887236     2.0067901321     -1.0534769641
C     2.2564879808     0.7641502023     -1.6748919886
C     0.5137173081     3.3382655542     -0.1159260023
C     -0.7375916373     2.9861375788     0.4468494175
C     0.9030567831     2.7904590063     -1.3394182391
C     -2.5300088447     1.3211094555     0.2744664206
C     -1.7197198591     2.3468456402     -0.3662615633
C     -3.4821499525     -0.8751877554     -0.3381336666
C     -3.3710728868     0.5287020901     -0.5677612036
C     -2.2495206529     -2.479934023     -1.4809030667
C     -3.360565632     -1.5911999679     -1.6116596165
C     0.1382446055     -2.65290999     -1.9330518983
C     1.2534572953     -1.8222997985     -2.3314805739
C     -1.1862458709     -2.4521265138     -2.4651955862
C     1.4639751229     0.5472336262     -2.855531827
C     1.0494734726     -0.8026728626     -3.2712739958
C     -0.0859575692     2.3645523044     -2.2605877233
C     -1.4768179336     2.2835586736     -1.8111563744
C     0.3857385006     1.4128689062     -3.2198587211
C     -3.3585616242     0.7141740805     -1.9814708513
C     -3.3763974173     -0.6378785061     -2.6324388087
C     -2.3895904952     1.5037414328     -2.6137321858
C     -1.3133006532     -1.5455649017     -3.5917319261
C     -0.1578174316     -0.7580664093     -3.9775609092
C     -0.5551001516     0.6466444487     -3.9993283824
C     -2.4387420938     -0.6497608055     -3.6583701605
C     -1.9018852051     0.7299054493     -3.7520049525


