58

 C     1.3212190921     0.2291255218     3.9549766532
C     2.504320252     0.0225977627     3.2468572415
C     2.500171652     -1.3644400377     2.7766324528
C     0.4630656612     -0.9897985958     3.7788971029
C     1.1980602254     -1.9285289142     2.993244508
C     -0.832342757     -0.5938662883     3.4210831311
C     0.5467377525     1.3428354112     3.6796396569
C     -0.8388980151     0.8571314753     3.4730256684
C     0.8449572765     2.199263519     2.5874460764
C     2.8505868155     0.8636668902     2.1410266067
C     1.9836180175     1.9547428308     1.746619108
C     3.1011247508     -1.4095837619     1.5082779087
C     3.3919058241     -0.0221937415     1.1173131873
C     2.5789549629     -2.2935703035     0.553305066
C     0.5266113741     -2.6285043077     1.9307307544
C     1.3223286334     -2.9595102145     0.7870247645
C     -1.5655915392     -1.2586700972     2.3637653069
C     -0.9167691135     -2.3998003499     1.7207033567
C     -2.5485290815     -0.4659796956     1.630216646
C     -1.4546519097     1.6064548261     2.5068551295
C     -0.4351353317     2.5173411222     1.9510551693
C     -2.4456248941     1.0000952035     1.656961383
C     -0.5463533855     2.9789223907     0.6546786981
C     1.861374114     2.2995169075     0.311904757
C     0.6559271751     2.9657133366     -0.2095632026
C     3.3040005335     0.3256335907     -0.2087376122
C     2.6422614663     1.5592368017     -0.6154392512
C     2.6545025466     -1.9644629051     -0.8624742578
C     3.0515990892     -0.6755848853     -1.2364073166
C     0.7242991843     -3.2113266661     -0.5163714652
C     1.5500937394     -2.5949399277     -1.545683149
C     -1.4758916757     -2.8646678251     0.4934629614
C     -0.643763012     -3.2419560285     -0.6515475784
C     -3.1053500264     -1.015436964     0.4387492756
C     -2.6178205417     -2.2456248229     -0.0415742135
C     -3.4600963301     -0.2099481126     -0.7282802242
C     -2.7782314734     1.7573977331     0.5339668306
C     -1.8744674007     2.8193545681     0.0656994871
C     -3.3685314837     1.1666027854     -0.662406883
C     -2.0631778747     2.9732898034     -1.3063723515
C     -2.9446402949     1.9200360869     -1.8017796219
C     0.4236365811     2.9825707695     -1.6099101475
C     -0.9233499876     3.0498207937     -2.1468684395
C     2.225220805     1.381238037     -1.9822373996
C     2.4030932984     -0.015798588     -2.3477468666
C     1.157736404     2.0987862884     -2.4861079804
C     0.9473419777     -1.975476514     -2.6434852503
C     1.4000023502     -0.6693741008     -3.0681591689
C     -1.2755600238     -2.7150457432     -1.8707554815
C     -2.5193324995     -2.1720013751     -1.5016233955
C     -2.949319675     -0.8984980508     -1.9263594038
C     -0.4938809936     -2.0222759897     -2.8221401922
C     -2.2682941482     1.2780226831     -2.8689457017
C     -1.07972249     2.0713418834     -3.1587278371
C     0.1871126651     1.4459932124     -3.3778814845
C     0.2451518281     0.0700294794     -3.5579504679
C     -2.19215964     -0.1693213992     -2.9209891563
C     -0.9495304295     -0.7605754977     -3.3475933776


