58

 C     1.3485538175     -0.0349529631     4.3190343311
C     0.5476116223     -1.185898756     4.0362113236
C     1.2575190005     -2.1123487779     3.2078913415
C     2.4757484714     -0.1568237865     3.4327374795
C     2.498569917     -1.4319356816     2.8098251338
C     2.562755647     0.9901439349     2.5719617459
C     0.5951515588     1.0730754785     3.7853130695
C     1.3276724807     1.7461838294     2.7725881905
C     -0.7634241046     -0.7915043295     3.5969037705
C     -0.7088944341     0.6443729463     3.3805891162
C     -1.480841004     -1.5821949684     2.6714472224
C     0.647222004     -2.6190324123     2.0468983601
C     -0.7681391985     -2.5320329191     1.82642573
C     2.614260931     -1.5225686404     1.400122359
C     1.5335546376     -2.3518999168     0.9101535885
C     3.0539343262     0.874745521     1.2586362934
C     3.0458498736     -0.4247473327     0.5910589757
C     2.7991852712     2.0252252719     0.4558197479
C     0.6794350408     2.4066457974     1.6491153661
C     1.539426743     2.7642957466     0.6199816331
C     -1.4022492374     1.2506968362     2.2550255764
C     -0.7272401003     2.1540337375     1.3351347667
C     -2.6031970681     -0.918446109     2.0930906514
C     -2.4982898228     0.5279049778     1.7881325509
C     -3.2687312108     -1.5124008641     1.0555553569
C     -1.2599646178     -2.8138722909     0.4934339227
C     -2.6498268085     -2.5349089379     0.2460522421
C     1.0648321687     -2.2830829685     -0.4074631677
C     -0.3112382714     -2.7412054111     -0.6467738382
C     2.7716551097     -0.4795333388     -0.8311192594
C     1.7706333462     -1.4067644105     -1.3516927277
C     3.0657970227     1.9871789654     -0.8897996292
C     3.0609168256     0.7191801672     -1.6002000279
C     1.0640838959     3.1490501631     -0.6951064831
C     2.1424695304     2.8884084822     -1.5966676733
C     -1.2036196433     2.2997835446     -0.0391034501
C     -0.2956764126     2.8516294571     -1.0622576405
C     -3.0766564475     0.7676278311     0.497237858
C     -3.7450216852     -0.4577598957     0.1291345516
C     -2.3907514662     1.5455900547     -0.4734905823
C     -3.1230862897     -2.3080210563     -1.0821520817
C     -3.7535638842     -0.9442131626     -1.1427453787
C     -0.82952981     -2.5320042071     -1.9405864852
C     -2.2415455714     -2.3395331526     -2.129415607
C     1.1344775825     -1.1168054991     -2.6386005957
C     -0.1522139132     -1.6491880597     -2.8776236461
C     2.4787002345     0.9558777642     -2.8586660219
C     1.9032576296     2.3352051934     -2.8392148533
C     1.4765283897     0.10176747     -3.3721696183
C     -0.5174224394     2.499315689     -2.4499914232
C     0.5962121091     2.258491482     -3.3159191504
C     0.4137581172     0.9322736864     -3.9017250983
C     -2.5233872219     1.1016973377     -1.8936769041
C     -3.1481308126     -0.184826184     -2.1957864742
C     -2.4084407049     -1.1378651797     -2.9706901239
C     -1.1817476626     -0.8165071894     -3.522338759
C     -1.5317512436     1.5184359693     -2.7972791195
C     -0.9051922379     0.5540410266     -3.7132564152


