58

 C     1.4766270292     -0.2295440754     4.6619951679
C     0.6128948076     -1.2857187137     4.8446404769
C     1.1449885601     -2.4419945143     4.138145657
C     2.5652558082     -0.6576298855     3.7296701073
C     2.3660153279     -2.0196095258     3.3965732976
C     2.6095423578     0.2962762522     2.6920508206
C     0.7627449649     0.8596395606     4.018420693
C     1.4874306011     1.2619488386     2.8905570175
C     -0.6952326823     -0.9217843301     4.2551186743
C     -0.6199012341     0.436733778     3.7713868432
C     0.2084285084     -2.8195272673     3.1920026469
C     -0.981914433     -1.9165675325     3.2924891857
C     2.1924851056     -2.3675566881     2.0224247896
C     0.8374538926     -2.93966602     1.8777158778
C     2.8098254705     -0.0985189755     1.3548446371
C     2.557170779     -1.4828005253     0.9849117925
C     2.6002599219     0.9156704077     0.3533382748
C     0.8364893067     1.8396090412     1.7538596383
C     1.6066098999     1.9510219553     0.5404975967
C     -1.2448475927     0.7962559597     2.5549484484
C     -0.5891724398     1.739547174     1.6360515577
C     -1.6416155877     -1.5912408796     2.1080801605
C     -2.0080256066     -0.215823939     1.8560077014
C     0.0868583509     -2.7830832426     0.7169133988
C     -1.3132987296     -2.3665549746     0.8995596101
C     2.0018803833     -1.7158188901     -0.3561230845
C     0.7270711315     -2.3660075717     -0.5369283573
C     2.8746939997     0.5152458726     -0.9683652436
C     2.4108316675     -0.8438974114     -1.3634700394
C     2.6234237202     1.3797336925     -2.0096141339
C     1.0388917705     2.6195115513     -0.6031209633
C     1.7536508572     2.5064325892     -1.8418478667
C     -1.2150132102     2.1028257976     0.3812233328
C     -0.4307528725     2.792052529     -0.6360191508
C     -2.6597168721     0.1127221999     0.6247164587
C     -2.4529501039     1.4154972368     0.002494052
C     -2.0362062282     -2.0935851996     -0.214980536
C     -2.9788637718     -0.9788810969     -0.2357332366
C     -0.055019204     -2.0940409668     -1.7305779204
C     -1.4869122227     -2.1869359094     -1.5785498111
C     1.7549723576     -0.7219272694     -2.6280823267
C     2.0991609483     0.5867360198     -3.1435706679
C     0.4377640915     -1.2483594388     -2.8242936499
C     1.0451044006     2.6244892271     -3.0922511028
C     1.2115855539     1.3364559832     -3.8517206513
C     -1.0582437351     3.0570226444     -1.9028782536
C     -0.2741304692     2.9399214825     -3.1274251847
C     -3.0033878428     1.6336666586     -1.3003882921
C     -2.3216305753     2.485642353     -2.1904582954
C     -3.3293015169     -0.7777833269     -1.5791515874
C     -2.3511776586     -1.5164079368     -2.4310805567
C     -3.4668730452     0.4871267016     -2.0952533121
C     -0.5045604349     -0.4833195574     -3.7126607219
C     -0.0885470658     0.8290185946     -4.1919219321
C     -0.9701380212     1.9570587649     -4.0113420283
C     -2.2489268262     1.8013477072     -3.5233192535
C     -1.9209285934     -0.6368494654     -3.4757906166
C     -2.7928230082     0.5222245367     -3.3937191288


