58

 C     1.5627117983     -0.0908729471     4.0234109676
C     0.7270955517     -1.2450872839     3.9282365594
C     1.3146379909     -2.1801960161     3.0183188577
C     2.5516090753     -0.2070166866     2.983379065
C     2.3815400578     -1.4484718396     2.2982161273
C     2.5584829885     0.9870938298     2.2102869674
C     0.7703440441     1.0260219289     3.6680380999
C     1.4451689507     1.8032593922     2.6753642678
C     -0.6476256278     -0.8321700308     3.7161364211
C     -0.5987306286     0.6001154892     3.4141419105
C     -1.4680135746     -1.6573465328     2.9609369362
C     0.4613115478     -3.0312629109     2.3177949082
C     -0.9494557438     -2.896500864     2.4781767212
C     0.7316538017     -3.3388218739     0.9135428395
C     2.4747164168     -1.5256057527     0.8673087346
C     1.728108479     -2.6080286468     0.1926878065
C     2.850272     0.9505959541     0.8252868057
C     2.812361431     -0.3160664938     0.106443342
C     2.4946539183     2.1481144851     0.1403664188
C     0.7056237445     2.5753094219     1.7668161054
C     1.4177389437     2.9852175625     0.6118274774
C     -1.3227896548     1.1472644753     2.3320471283
C     -0.751248206     2.3262539677     1.6483898637
C     -2.2932250133     -1.0932712765     1.8849098914
C     -2.2426366246     0.2771905278     1.5662554393
C     -1.5497347253     -3.1565142808     1.1954379682
C     -0.5527386864     -3.5947324951     0.2863588439
C     -2.4063989192     -2.0857398606     0.8264089891
C     -0.7513271403     -3.3214719278     -1.0716956296
C     1.5554286041     -2.5283229647     -1.2341218184
C     0.3786261582     -3.0372688147     -1.857134648
C     2.5272752835     -0.2558457168     -1.3358253391
C     1.9216165396     -1.351574297     -1.9675159209
C     2.462420886     2.2030442838     -1.279332756
C     2.3497368902     1.025781237     -2.0030091245
C     0.7316998943     3.529829627     -0.5425082407
C     1.4206407595     3.1323890695     -1.7114817836
C     -1.3957034385     2.7944705334     0.5113341762
C     -0.6900987993     3.5342942735     -0.5473394663
C     -2.7145662992     0.6864700324     0.2370996264
C     -2.4891712724     2.0420549809     -0.1250535467
C     -2.5587770432     -1.7024101763     -0.5458429273
C     -1.8550287852     -2.4663976073     -1.5214984722
C     -2.8991271148     -0.307840883     -0.8284743051
C     -0.0112448874     -2.1546562055     -2.9305042583
C     0.923338229     -1.1385311086     -3.0521687571
C     -1.4206958309     -1.8373334279     -2.7509658188
C     1.3025460708     1.2549224167     -3.0487527731
C     0.7353182692     2.571255113     -2.8180158631
C     0.503286545     0.1823025242     -3.4653463608
C     -1.3519592663     3.2944702216     -1.7625668307
C     -2.5233358217     2.4397710391     -1.4838817469
C     -0.676184348     2.7649785499     -2.9154317294
C     -2.7675276895     0.1282761349     -2.1829946798
C     -1.8694119348     -0.5868960684     -3.0887711436
C     -0.9345581175     0.4074736396     -3.6433374307
C     -2.6352504816     1.5014464929     -2.4962795092
C     -1.4733992044     1.676587786     -3.3951083961


