58

 C     1.5326055498     0.123528665     4.273765026
C     0.7354742536     -1.0600584143     4.0184910688
C     1.4940396591     -1.9567267447     3.2786039966
C     2.6822656765     0.042187412     3.3712002508
C     2.7506878863     -1.2586875168     2.8574917095
C     2.6581807895     1.1382876242     2.4316046051
C     0.7698853101     1.2040795942     3.8235295914
C     1.5118151311     1.9486458192     2.8303113668
C     -0.5558467867     -0.6679701281     3.441340307
C     -0.5577728797     0.7560585228     3.4011544557
C     -1.1735596306     -1.4089637889     2.3722069399
C     0.9598950051     -2.6298270031     2.1576142423
C     -0.421209095     -2.4949932967     1.7609607624
C     2.9136852252     -1.494578095     1.4851095048
C     1.959749479     -2.5565654131     1.1221056541
C     2.8834942025     0.93661115     1.0319103907
C     3.0853640132     -0.4267765869     0.5379596247
C     2.2881408429     1.923787646     0.096608633
C     0.7967142785     2.6826421348     1.9069195242
C     1.2557727519     2.8113607513     0.5656726905
C     -1.3014779751     1.4795033078     2.4137502739
C     -0.6614301037     2.6083459     1.8452965718
C     -2.2082542691     -0.7232503053     1.5903301499
C     -2.2967253313     0.7536119276     1.6265695658
C     -2.7345294286     -1.3960508573     0.4666536184
C     -0.7616986741     -2.9233356412     0.4137564902
C     -2.0201249397     -2.5224567089     -0.1157326862
C     1.6286775128     -2.7926299542     -0.1861787035
C     0.2820001482     -3.1657907298     -0.5384493916
C     2.8226018223     -0.7355306944     -0.8719821216
C     2.1928982598     -1.9847355091     -1.2328746362
C     2.2582898891     1.6478980998     -1.2801974838
C     2.6360327034     0.3357161234     -1.7895509673
C     1.2391771595     2.2131559141     -2.1707607463
C     0.1311228854     3.2090165328     -0.2723266024
C     -1.0493916257     3.0766536331     0.5511316194
C     0.0891413407     2.9000894623     -1.6511956851
C     -2.8739660962     1.4329067798     0.5292221843
C     -2.2422420748     2.629585137     -0.0051034897
C     -3.4118049941     -0.6896003926     -0.6142412576
C     -3.4586419282     0.711441761     -0.6016157447
C     -2.2207878668     -2.4654789556     -1.5219120315
C     -3.0784469583     -1.3386619229     -1.8371395713
C     0.120422057     -2.8390718741     -1.9323104257
C     1.2979855134     -2.1018713647     -2.3547193918
C     -1.1439209806     -2.501821659     -2.4360666526
C     1.9080749824     0.1389709139     -2.9904513831
C     1.0560548223     1.2863826201     -3.2071248698
C     1.1443884546     -1.0222078955     -3.2395082864
C     -2.5427112916     -0.6364016327     -2.9487281408
C     -1.3088656441     -1.344036899     -3.3405042354
C     -0.2341694711     0.8569290028     -3.6839577997
C     -0.1958422538     -0.6183069387     -3.7173345759
C     -1.20222648     2.6231137931     -2.2579710462
C     -2.3339465005     2.556132332     -1.4303166717
C     -3.160940514     1.4182385155     -1.800148082
C     -1.3601225386     1.5333396602     -3.249027183
C     -2.5739812229     0.7781662067     -2.9238409949


