58

 C     1.212862189     -0.0916178461     3.8491506624
C     2.3358838508     -0.402775869     3.1205140347
C     2.1982558525     -1.7479238033     2.5621364726
C     0.3376133148     -1.2693235028     3.8170979893
C     0.855366395     -2.1843704183     2.8185205802
C     -0.9537315982     -0.8104154172     3.7134637988
C     0.4192310937     1.0655819522     3.4836714777
C     -0.9471445303     0.6497532939     3.6239349348
C     0.7754094119     1.8579573693     2.3436469434
C     2.8173612381     0.4416819519     2.0768156475
C     2.0752590689     1.5814712081     1.6600496741
C     2.7853053654     -1.7660821383     1.2916994775
C     3.3957730444     -0.4461599416     1.070289148
C     2.1282751931     -2.4319287868     0.2156541768
C     0.0433099067     -2.576595151     1.7044740523
C     0.7310829797     -2.8241773649     0.4184502214
C     -1.848685239     -1.2919423546     2.7127505389
C     -1.396707851     -2.1770753289     1.6950146983
C     -1.9673759399     1.0481393022     2.7525089852
C     -2.703166871     -0.1617799855     2.3542675513
C     -0.3283808008     2.4707016962     1.5726904431
C     -1.7217447392     2.07509341     1.794413949
C     -0.0176868058     3.0399269867     0.3059136272
C     2.2910886852     2.037316476     0.2817449841
C     1.280254156     2.8660406413     -0.317895818
C     3.6075378757     -0.0078625672     -0.2071325885
C     3.1104067352     1.2950655966     -0.6160074061
C     2.5724410085     -2.0453354041     -1.1077552382
C     3.3929789347     -0.9268218671     -1.288100107
C     1.6727211784     -2.08869593     -2.2577692672
C     -0.0718260607     -2.9613555284     -0.7485061737
C     0.4290434054     -2.6441468702     -2.0830824452
C     -2.1464637736     -2.1642629159     0.4333485129
C     -1.4944010928     -2.6780721881     -0.7409396525
C     -3.409942332     -0.1655776911     1.1841348806
C     -3.192194943     -1.2232752744     0.2116111821
C     -2.657075872     2.119622142     0.6892796337
C     -3.5579411113     1.0716156394     0.4724743969
C     -1.0049609557     3.1496621289     -0.7645197505
C     -2.2568470477     2.6014151258     -0.6304186935
C     1.1022297672     2.8868890332     -1.7223212901
C     -0.3115054204     2.9707845162     -2.0130011657
C     2.7634836261     1.1808834922     -2.0402347721
C     2.8880760455     -0.1730163226     -2.4256819287
C     1.8246093249     -0.8699548821     -3.054926528
C     1.6918149576     1.921122027     -2.5682748147
C     -0.6436830783     1.9493068918     -2.9034482877
C     0.6449028214     -0.1364914673     -3.475651991
C     0.6166088671     1.2664804074     -3.2912147652
C     -0.6704360236     -2.108876159     -2.8421676097
C     -1.8610712265     -2.2208062884     -2.029736435
C     -0.6310601056     -0.8303917374     -3.3994635901
C     -3.4012796654     -0.6210536573     -1.1133141139
C     -3.5710957857     0.7725411767     -0.9514725214
C     -2.7794248418     1.7080504227     -1.6661147737
C     -1.8975100484     1.2359762963     -2.7178098289
C     -2.6600923062     -1.0712097444     -2.2193229824
C     -1.8957502367     -0.1437047506     -3.0334381265


