58

 C     1.7259070112     -0.2407450749     4.2307853827
C     0.8481610772     -1.3756294464     4.3601701613
C     1.2073016727     -2.3478822976     3.3835152676
C     2.5717117261     -0.4967170583     3.1300101547
C     2.3347314297     -1.8489394341     2.6227670048
C     2.5032978032     0.6090279342     2.1867310864
C     0.9158583766     0.8926619181     3.8421875768
C     1.4657640643     1.5109130564     2.6628377133
C     -0.4729478059     -0.9405159854     4.008265054
C     -0.4602127292     0.4904156661     3.7821896863
C     0.0167711372     -2.7454485777     2.6531861492
C     -1.0521681636     -1.8025839142     3.0009342047
C     0.1515504163     -3.0929026916     1.3392338899
C     2.4140456322     -2.0810327126     1.2401792543
C     1.4331228914     -2.9792871984     0.665853937
C     2.6684796625     0.4079982107     0.8156255648
C     2.8563097131     -0.9794294132     0.3527261726
C     2.1149841208     1.4044911354     -0.1235025073
C     0.6291840084     2.1559892684     1.7442998382
C     1.0679687495     2.2840732683     0.3484181504
C     -1.3114640701     1.0421334494     2.8186484432
C     -0.8043776577     2.1522560821     2.0197704442
C     -1.8753413321     -1.26264112     1.9951154086
C     -2.240282702     0.1487054458     2.1159027679
C     -0.8711898346     -2.7732784335     0.3410804675
C     -1.8749810558     -1.8343629124     0.6192701043
C     1.1703832521     -2.9748391042     -0.7130283228
C     -0.2692000664     -2.8408405835     -0.9554063497
C     2.8269553765     -1.1934250226     -1.0149176896
C     2.0661557112     -2.3250117459     -1.5762307352
C     2.3082932382     1.1939920855     -1.5549052857
C     2.7621262621     -0.1119618469     -1.98289906
C     1.4960089459     1.9468940356     -2.4759303041
C     0.1589141859     2.914326524     -0.6061421634
C     0.3961790693     2.7369740802     -1.99073715
C     -1.6670228394     2.701168087     1.0703426724
C     -1.2052876042     3.1814142162     -0.1993557307
C     -3.0385247397     0.6852549139     1.1162240859
C     -2.9664472761     2.093657331     0.8427558865
C     -2.4595063349     -1.1068457216     -0.5169783492
C     -3.2464062085     0.0272125435     -0.1856694597
C     -0.7614945944     -2.1207277923     -2.0713022288
C     -1.8930199478     -1.216886261     -1.872489063
C     1.6230743693     -1.9597586405     -2.8348757739
C     2.2473486438     -0.6833894629     -3.1877441382
C     0.2044130609     -1.8633938421     -3.1355174531
C     1.0711680827     1.3438148892     -3.7261439308
C     1.3466736968     0.0163072199     -3.9801434933
C     0.0372425842     -0.7403197544     -3.9692919103
C     -0.7572775962     2.4737971066     -2.8765898587
C     -2.0457090751     -0.0782174806     -2.7902368814
C     -0.375018173     1.4992274598     -3.7873526833
C     -0.9989852964     0.1781944264     -3.7666263154
C     -2.32443311     3.03201483     -1.1229224131
C     -3.4010384462     2.3642661991     -0.4664980724
C     -3.4750338081     1.068687653     -1.1260898679
C     -2.0514978951     2.3812103995     -2.3516928219
C     -2.741217599     1.0799340832     -2.3478065069


