58

 C     1.2995923651     0.2170184078     3.9727245028
C     2.4953526636     0.0062314408     3.2754617442
C     2.4901222594     -1.3823297308     2.8046656906
C     0.4371035893     -0.9945762728     3.7893013888
C     1.1752049942     -1.9256392001     2.9996970705
C     -0.8606672337     -0.5878737997     3.4393282382
C     0.5314526452     1.3207934394     3.6652347311
C     -0.8622948816     0.8658182422     3.4924595857
C     0.8515043762     2.1667857973     2.5557776026
C     2.8781911089     0.8445319874     2.1903297522
C     2.0095666608     1.9230832064     1.7502432575
C     3.1230575452     -1.434431433     1.5538650218
C     3.4661783309     -0.0463047076     1.1891588991
C     2.5828357971     -2.2713528616     0.5637240686
C     0.5087523195     -2.596886075     1.9129782501
C     1.3038236463     -2.897158986     0.7636116874
C     -1.5929004242     -1.2512362068     2.3840873281
C     -0.9335739035     -2.3659008213     1.716200891
C     -2.5931200212     -0.4611933619     1.6595582641
C     -1.4432195368     1.5959248678     2.491112751
C     -0.3999292128     2.475078561     1.9014907549
C     -2.458610781     0.9997926386     1.6661132584
C     -0.4884967466     2.8446781315     0.5693303598
C     1.9267309011     2.2440374956     0.3058418982
C     0.7011507958     2.7610904957     -0.2921881011
C     3.4990596413     0.3177015696     -0.1235177384
C     2.8492275144     1.5646070438     -0.5639825748
C     2.7083497766     -1.9143308438     -0.8448819107
C     3.2903765147     -0.6803424159     -1.1820342821
C     0.7097721536     -3.0410549529     -0.5571494243
C     1.5411170233     -2.3715011895     -1.5506883483
C     -1.4888790006     -2.7983377636     0.4748767336
C     -0.6466665624     -3.07660614     -0.6962222108
C     -3.1852250571     -1.0172116733     0.4903055919
C     -2.6607109166     -2.2230348105     -0.0192033616
C     -3.606741411     -0.2075424486     -0.6590314427
C     -2.7939061562     1.7457527019     0.5374880415
C     -1.8228545186     2.7266517522     -0.0015642348
C     -3.4856841511     1.1751245716     -0.6021243911
C     -2.0247601257     2.8305815897     -1.3622420443
C     -3.079578706     1.914093025     -1.7737517507
C     0.4615552433     2.6384679202     -1.7395350205
C     -0.8838369025     2.6812960645     -2.258653003
C     2.5586169574     1.4003830398     -1.9248009498
C     2.7714221823     0.0008554881     -2.2966151239
C     1.3703455097     1.8576363646     -2.5157693137
C     0.9449237834     -1.6340677698     -2.623261323
C     1.6365684722     -0.4316076339     -3.0121946468
C     0.8736562754     0.762473519     -3.3602975543
C     -1.282562798     -2.5002167598     -1.8806751735
C     -2.5765170577     -2.1080865367     -1.4839301625
C     -3.1751979277     -0.9077570206     -1.8919654526
C     -0.5221876143     -1.6928386127     -2.8001370725
C     -2.6056387283     1.244545746     -2.896195519
C     -1.2976407238     1.783745897     -3.268660556
C     -0.4705340805     0.6742783246     -3.6271728501
C     -2.5443709734     -0.1907747303     -2.9393931643
C     -1.2093049131     -0.5728645707     -3.3671286728


