58

 C     1.525779315     -0.0122777951     4.1376292051
C     0.7864364673     -1.185961245     3.9806505868
C     1.4722037332     -2.0724660164     3.0423338448
C     2.6097889719     -0.0313754682     3.1917071242
C     2.6863221602     -1.3598376308     2.631184887
C     2.4286903905     1.063730024     2.3217088242
C     0.6738328511     1.1266571531     3.878327215
C     1.2431687213     1.833040441     2.7872851596
C     -0.60813213     -0.8169595848     3.7869712736
C     -0.677101665     0.6689281666     3.773439562
C     -1.3389782616     -1.5069775088     2.8445270807
C     0.7116776448     -2.7908535229     2.0752533878
C     -0.7231750497     -2.5440469347     2.0110625612
C     1.3550312642     -3.107147722     0.8210765368
C     3.127422336     -1.4711925075     1.3205728048
C     2.5903500176     -2.513804698     0.5224323183
C     2.6827555063     0.9437186719     0.8994568127
C     3.1786213178     -0.2945876955     0.4425303684
C     1.9802866058     1.8200780932     -0.0457901685
C     0.4190780952     2.4700614394     1.8352439035
C     0.9188752841     2.6617338477     0.4632540805
C     -1.5169406063     1.3084896615     2.8694934045
C     -1.0007850453     2.3444401626     2.0162004521
C     -2.3524436639     -0.8344584816     2.0279786642
C     -2.4715447151     0.5517940049     2.0521780459
C     -1.4114163116     -2.5553914091     0.7797032621
C     -2.4452030823     -1.5009947304     0.7743912852
C     0.610290468     -3.1659167998     -0.4418839638
C     -0.7760061786     -2.9236839234     -0.4635671071
C     2.5862220116     -2.1083238084     -0.8771679223
C     2.8811255725     -0.7364212839     -0.9253864684
C     1.4259394599     -2.5942914486     -1.5055875658
C     1.9731127294     1.4770605647     -1.4732811879
C     2.2396996314     0.0995042207     -1.8799123416
C     1.1874542059     2.272042557     -2.3606249539
C     -0.0068903114     3.2361086974     -0.4562803951
C     0.2197122644     3.1789125663     -1.8280732814
C     -1.8820738449     2.4450199368     0.8768981575
C     -2.7342087279     1.2682692494     0.8320212396
C     -1.4488368173     3.0258426513     -0.27945602
C     -2.8309156831     -0.8317887868     -0.4098342658
C     -2.9780770802     0.6302203478     -0.4122680572
C     -1.3468375328     -2.4330660191     -1.6695833175
C     -2.4801186501     -1.4785995029     -1.6531028967
C     0.8633086419     -1.879192892     -2.5916284965
C     1.4055864239     -0.5473297912     -2.9021621655
C     -0.5423915098     -2.0960427791     -2.794154405
C     0.599568581     1.683066529     -3.5209198606
C     0.6294392626     0.3045911683     -3.7630636713
C     -1.0538900624     3.0174012173     -2.5447918284
C     -2.022628163     2.648493626     -1.5586865937
C     -2.7559380622     1.4037107593     -1.6644349522
C     -0.813600244     2.1783340779     -3.6282527282
C     -2.5085046368     -0.7772763817     -2.8441973055
C     -1.3099989761     -1.1828901696     -3.5956268116
C     -0.7385095161     -0.068084859     -4.1318378849
C     -2.6009278186     0.6703081121     -2.8948902302
C     -1.6357055688     1.0896834391     -3.8790652016


