58

 C     1.5090148349     -0.086417127     4.0180492402
C     0.6795461158     -1.2356339778     3.8818396046
C     1.1644708685     -1.9435980697     2.7434719951
C     2.5831329031     -0.1369640073     3.0717186144
C     2.3860685403     -1.2837065148     2.2521716952
C     2.6728030411     1.1476465884     2.4378600568
C     0.7172256032     1.0455469168     3.6953526821
C     1.3763326508     1.8404295332     2.699441083
C     -0.6901012833     -0.7873941394     3.8197855833
C     -0.6549021032     0.6463965997     3.54229963
C     -1.5864733589     -1.5843515808     3.1389636081
C     0.2716307712     -2.5800618692     1.8145846817
C     -1.1011117823     -2.5972682673     2.1846802082
C     0.6489618717     -2.6407665326     0.3699484368
C     2.6826121933     -1.221124396     0.8520978336
C     1.822692897     -1.8825145828     -0.1288123265
C     3.222157049     1.1922860923     1.1980656429
C     3.420226888     -0.0495316509     0.4462704842
C     2.7816550208     2.2092528919     0.2555659329
C     0.6631469036     2.3824931912     1.6153027582
C     1.4537097059     2.7627935577     0.423082265
C     -1.4162772288     1.1774628878     2.4578518248
C     -0.7880636891     2.0605676545     1.4712089452
C     -2.6576375331     -0.943722146     2.4773508387
C     -2.5488543709     0.3955361996     2.0412600887
C     -2.1274979525     -2.77899956     1.1730602523
C     -3.1116362742     -1.7607343078     1.3627382655
C     -0.3511302591     -3.0139226676     -0.542260775
C     -1.7574504964     -3.1066197275     -0.1336512775
C     -0.3332304148     -2.5499127635     -1.9277305375
C     1.8445858985     -1.4301547676     -1.5225154496
C     0.7070076619     -1.6955572225     -2.4107500875
C     3.4364314343     0.3324277582     -0.894545782
C     3.1845078036     1.7772588388     -1.0171247211
C     2.6897342508     -0.3213652607     -1.8867317383
C     2.4363834398     2.0196609208     -2.1818563505
C     2.2316739984     0.7075737626     -2.8286770177
C     0.7736616681     3.1136199988     -0.7492531623
C     1.3323602686     2.8923778166     -2.0734948267
C     -1.4080150875     2.1950102384     0.1794265804
C     -0.6789070719     2.883642391     -0.8541901524
C     -3.0638154117     0.4359387262     0.6785460653
C     -3.5063889041     -0.9228549308     0.3035878523
C     -2.5209936675     1.3054922942     -0.2626975528
C     -2.5329494394     -2.5713830121     -1.1954496756
C     -1.675751018     -2.3440104907     -2.3308350989
C     -3.2999872985     -1.3813342191     -1.0043349453
C     -2.6443343064     0.9247029935     -1.7057475191
C     -2.0432818017     -1.1305259213     -2.9664007105
C     -2.929533495     -0.4345609551     -2.0344137907
C     0.3542550761     -0.7488361709     -3.4273685472
C     1.1059722514     0.4859227477     -3.5974326877
C     -1.0514999007     -0.4204168574     -3.6373961379
C     0.2313536604     2.7055239053     -2.967840206
C     -1.0056755886     2.7268041075     -2.2027519708
C     -1.8819753262     1.6571403047     -2.659588433
C     0.1613792078     1.5686036597     -3.7674896057
C     -1.1772194542     0.9921311293     -3.6942416536


