58

 C     1.2349546978     0.2382847967     4.1280411946
C     2.4163123097     0.0958239258     3.4116997873
C     2.4396039373     -1.2640866227     2.8630887031
C     0.3882348963     -0.965222293     3.8425822114
C     1.1051447193     -1.8180685669     2.9805619095
C     -0.9080958811     -0.5268429561     3.5083137571
C     0.4427429728     1.3616057653     3.929052232
C     -0.9383678091     0.9024322514     3.7485918143
C     0.7332315019     2.3003518786     2.8873040134
C     2.7588358058     1.0011965496     2.3563110807
C     1.8654325868     2.0861372676     2.0121023942
C     3.0898480503     -1.2409560212     1.6346212048
C     3.3253464408     0.1773561516     1.295257521
C     2.6468585049     -2.1147759679     0.6347088598
C     0.4610236923     -2.3922065522     1.8075015404
C     1.3409614823     -2.7225782468     0.7378972885
C     -1.5949428334     -1.0735779328     2.3464536353
C     -0.9231719566     -2.0465180513     1.4854501742
C     -2.5692616003     -0.2146911315     1.7629251379
C     -1.5819012971     1.7553487759     2.8592758671
C     -0.5556304071     2.6664857218     2.3126186734
C     -2.5377953685     1.2104886592     1.9938165894
C     -0.6695214284     3.0587039702     0.9953856426
C     1.7019757567     2.4188201057     0.5745962398
C     0.4729888469     2.968273724     0.1027959741
C     3.2386794501     0.5521138937     -0.029112051
C     2.4427758476     1.7049179053     -0.4135649143
C     2.8436925332     -1.783383766     -0.7522485354
C     3.1183650732     -0.4464691854     -1.0785723388
C     0.84794545     -2.9465778107     -0.5947859707
C     1.8477053718     -2.4778673153     -1.5254999144
C     -1.4311667888     -2.2773231423     0.1122778958
C     -0.5397710597     -2.8469129595     -0.8977698818
C     -3.062277678     -0.4386906527     0.4302418882
C     -2.5957375658     -1.528284443     -0.3588177578
C     -2.81103113     1.8433679441     0.7300834796
C     -1.864447475     2.7493411123     0.2276245307
C     -3.3369482232     0.847397144     -0.1663922347
C     -0.0202345622     2.7441800594     -1.2304475888
C     -1.4708169696     2.6946390145     -1.1706148469
C     1.9495524806     1.4808242111     -1.7468085357
C     2.4373837768     0.1880490382     -2.1951125486
C     0.6790686373     1.9540670004     -2.1904475375
C     1.458376366     -1.9822077288     -2.7754480246
C     1.7026704266     -0.559899049     -3.0910360949
C     -0.8531875834     -2.7078276319     -2.3130514929
C     0.1832407684     -2.289254544     -3.2361388193
C     -2.8664282848     -1.4166019784     -1.7852995877
C     -2.040120205     -2.0685339059     -2.721560851
C     -3.2133732445     1.0140970984     -1.5507932443
C     -2.1783065912     1.9292304462     -2.0736748666
C     -3.1947311694     -0.1227358661     -2.3506356349
C     -0.0732317305     1.2053141879     -3.228346167
C     0.5075068603     -0.0216841447     -3.7293078601
C     -0.3281200452     -1.1510960679     -4.0068392349
C     -1.7020532981     -1.0961309064     -3.8110530552
C     -1.5180974019     1.2774710185     -3.1983149383
C     -2.301689647     0.1146857999     -3.4894867173


