58

 C     1.3611818479     -0.0295774946     3.8180716397
C     2.5579082692     -0.2275336816     3.1476633802
C     2.5686356201     -1.5807467819     2.5969673665
C     0.5339995458     -1.2281073     3.5884171044
C     1.2821586299     -2.1687476602     2.7880481511
C     -0.7321163311     -0.8063975034     3.1936832151
C     0.571584122     1.1349359555     3.5740457057
C     -0.7827893766     0.6674050256     3.3220494286
C     1.0815561971     2.1376481126     2.7220895332
C     2.9756870706     0.6695931061     2.0985293895
C     2.2609158694     1.8560758878     1.9092055553
C     3.153195814     -1.538995802     1.3147946461
C     3.3121837235     -0.1257671707     0.9371428834
C     2.6999660353     -2.4553329864     0.3647634016
C     0.6324782274     -2.8451501282     1.7048870132
C     1.448907948     -3.152484708     0.5678359646
C     -1.4589351849     -1.4742638905     2.1362542514
C     -0.8045114827     -2.5902391375     1.4687225816
C     -2.4780291127     -0.6883490444     1.4291779963
C     -1.6340824118     1.3944027311     2.5232713139
C     -2.5311541803     0.7278760809     1.6031625558
C     0.1761061777     2.9040989456     1.8993014209
C     -1.1864867185     2.6154074008     1.8832629555
C     2.0274284876     2.3679036729     0.5696353935
C     0.8411914685     3.1819044668     0.6235256657
C     2.9886644092     0.3114778098     -0.3918718215
C     2.3127629813     1.6004734649     -0.5965065619
C     2.7713700055     -2.0795876628     -1.0139105248
C     2.8004307295     -0.7140660744     -1.3724117978
C     0.8608969507     -3.342650252     -0.7597091761
C     1.6938562419     -2.6902951753     -1.73080599
C     -1.348233373     -3.0073346003     0.210409305
C     -0.5070284467     -3.3075838489     -0.9192326481
C     -2.9869260312     -1.1652660938     0.1821040812
C     -2.4913943339     -2.3636084497     -0.327861496
C     -3.2964855802     -0.2671645722     -0.9537951691
C     -2.8054837582     1.6196441623     0.4994982926
C     -1.9486312165     2.7657351901     0.6580659853
C     -3.169331587     1.1394248663     -0.8160575224
C     0.1170260581     3.4361099745     -0.5112227446
C     -1.3526505296     3.365304693     -0.473643657
C     1.5101673012     1.8369349866     -1.8125663314
C     0.5426070076     2.882205297     -1.7862209115
C     1.8597644684     -0.5310501971     -2.4898320766
C     1.1560222507     -1.7785968447     -2.6769443899
C     1.2516519395     0.7053079821     -2.7400128571
C     -1.0910215345     -2.6567912066     -2.1314793744
C     -2.3597304031     -2.2227335191     -1.7788917827
C     -2.8809196921     -0.9446366119     -2.1639200151
C     -0.2470447314     -1.7956062576     -2.9661854367
C     -0.0051341417     0.6381760521     -3.4739851818
C     -2.1847369675     -0.2132806038     -3.1440577818
C     -0.8023665402     -0.598567155     -3.4503106443
C     -2.7160711644     1.8948272401     -1.9670342639
C     -1.7853812698     2.9976592283     -1.7545805675
C     -0.6336161527     2.8246945835     -2.6111359762
C     -2.2364669564     1.1960920713     -3.0994623007
C     -0.8935461589     1.7191934569     -3.4209371561


