58

 C     1.3141809603     -0.0687379166     4.2775945079
C     2.4670618944     -0.3635502669     3.5786866516
C     2.2562447201     -1.6297368068     2.8087476741
C     0.4141191338     -1.2450932439     4.1221600499
C     0.957014938     -2.0841488731     3.0519230366
C     -0.8734234132     -0.8139846674     4.0784207917
C     0.5320119797     1.105580482     3.9627406569
C     -0.8379453826     0.676246309     4.083985698
C     0.9077132476     1.93265252     2.8194363954
C     3.007923244     0.5694775458     2.6909655567
C     2.2217084972     1.6920923318     2.2795967907
C     2.7801917428     -1.4324079602     1.4826192794
C     3.374111617     -0.1404567875     1.4652435848
C     2.0543394077     -1.9106154701     0.3420625937
C     0.1226144911     -2.4600342138     1.9275640778
C     0.7889158422     -2.5775023599     0.6268872622
C     -1.765635252     -1.2436625965     3.0100894189
C     -1.2866931871     -2.097301723     1.9458398524
C     -1.7888761208     1.0790855154     3.1852146706
C     -2.4862164127     -0.1006021987     2.6291448988
C     -0.1423170634     2.3530419292     1.8450761541
C     -1.4819610229     1.9286523194     2.0726584335
C     0.1740152929     2.6738486207     0.4504908494
C     2.4466883299     1.8483423613     0.8596113923
C     3.1505745105     0.6762677285     0.3582477366
C     1.5486929943     2.491133944     -0.0006196418
C     2.2229539725     -1.2428803946     -0.9467918478
C     2.7907227281     0.0994566567     -0.8978711411
C     1.4006856264     -1.6018080377     -2.105626199
C     -0.0074712233     -2.8639999388     -0.4826164995
C     0.3960731699     -2.5769175578     -1.8478220193
C     -2.0042085296     -2.0206554341     0.6788147348
C     -1.4434416903     -2.7237466622     -0.4058054282
C     -2.8237434005     0.1762775929     1.2893403849
C     -2.3042001476     1.4839539714     0.9612556288
C     -2.7855385002     -0.8387778627     0.3129185419
C     -0.8495745978     2.6298481179     -0.5915130928
C     -2.0461839039     1.8269250232     -0.3665652982
C     -0.4674463366     2.8130945834     -1.961480539
C     1.8236282079     2.2932847387     -1.3881730782
C     2.3731799481     1.0290740877     -1.8575814201
C     0.8950840259     2.6891262829     -2.3491946043
C     1.2044113871     -0.6717342476     -3.256759153
C     1.7230281034     0.6628784915     -3.096367876
C     0.9809057541     1.8118158249     -3.5168654773
C     -0.0009711189     -0.7885539106     -4.0726949102
C     -0.7898730023     -2.6185748914     -2.6512765659
C     -1.9313029309     -2.5366150394     -1.7144831247
C     -0.991346568     -1.7683160526     -3.705224972
C     -2.9178673727     -0.4127805402     -1.0752716049
C     -2.6169329912     0.9709490487     -1.4111066877
C     -2.7100438077     -1.4282754045     -2.0833852499
C     -2.2765291029     -1.0665069736     -3.4262126309
C     -1.2532255694     2.2285289644     -3.0164256065
C     -0.3101544667     1.6512035718     -4.0252811219
C     -0.7603847105     0.399349121     -4.3922595129
C     -2.2707193767     1.2998794001     -2.7799157257
C     -2.1045685546     0.235910908     -3.7721462955


