58

 C     1.0851784162     -0.0266048296     3.9689699305
C     2.2768406542     -0.368436875     3.3719531841
C     2.203634367     -1.7722819051     2.9098584561
C     0.2341638529     -1.2296110372     3.923162572
C     0.8730696201     -2.2326093363     3.090853504
C     -1.0574066242     -0.829548838     3.6744673935
C     0.2937929556     1.0605420753     3.418138832
C     -1.0603077433     0.6359901796     3.4820940416
C     0.7696562832     1.8384480595     2.2843639771
C     2.864284301     0.4186879408     2.3486652546
C     2.1521844471     1.591701447     1.84933105
C     2.8820962031     -1.8434380602     1.6791313262
C     3.4443216065     -0.5077523964     1.398268459
C     2.2735571244     -2.5321946905     0.6246915767
C     0.1487093915     -2.7798149975     1.9597826316
C     0.9196265721     -3.0097821246     0.7730741971
C     -1.8433715276     -1.4019225606     2.6379552902
C     -1.2769160574     -2.4095333907     1.774359874
C     -1.9490171266     0.922935854     2.4598579045
C     -2.6065915975     -0.320492417     2.0508614593
C     -0.2118489119     2.3385506213     1.3231579956
C     -1.6142124989     1.9164169842     1.4697300071
C     0.1989122082     2.7955762024     -0.0119272493
C     2.5185032384     2.026108625     0.5561321521
C     1.5630573347     2.6459750503     -0.3426163438
C     3.6643675872     -0.1205745831     0.088841687
C     3.396818566     1.2264109428     -0.2508463875
C     2.4377427745     -2.0762750116     -0.7620734758
C     3.1788204575     -0.9392626791     -1.0384452327
C     0.319441764     -2.9543626951     -0.5461249061
C     1.2205997284     -2.3469761734     -1.491191273
C     -1.8358269239     -2.4620682623     0.4694185214
C     -1.0481678287     -2.7779935713     -0.6848168143
C     -3.1972771599     -0.4032544416     0.7919615938
C     -2.8998384154     -1.565789056     0.0063031806
C     -2.4849448703     1.9638174253     0.3790040471
C     -3.4002126978     0.8465580076     0.1016665635
C     -0.7765592278     2.9172269328     -1.1352788226
C     -2.1534733901     2.621668048     -0.8806252044
C     -0.3265579274     2.6705829629     -2.4911013755
C     1.9515790937     2.2740157757     -1.7097035007
C     2.9593725484     1.2866769412     -1.6083228815
C     2.7233992034     -0.0468574019     -2.0847893704
C     0.9961464922     2.119010609     -2.6786433443
C     0.7392502648     -1.4900751839     -2.5255080949
C     1.5516165304     -0.3183906207     -2.8578625975
C     0.8712451526     0.8390281695     -3.3859697956
C     -1.5768679667     -2.0856817609     -1.834193343
C     -2.8271991583     -1.459672173     -1.4099536124
C     -0.7199525525     -1.4546282666     -2.770769405
C     -3.6129187922     0.8510278227     -1.2705582601
C     -2.9870241565     2.0372915151     -1.8771003825
C     -3.294145022     -0.3006804439     -2.0837699803
C     -1.156573654     1.993238075     -3.429511611
C     -0.4466149588     0.7735036676     -3.843140584
C     -1.2910206011     -0.3405062722     -3.5297095851
C     -2.4632826457     1.6364735187     -3.1067377266
C     -2.5938586929     0.159608602     -3.224765462


