58

 C     1.2199907471     -0.1697919261     3.8284855383
C     2.3873866142     -0.4180398855     3.1331455818
C     2.337885658     -1.804213074     2.6305669047
C     0.3727669562     -1.3683263056     3.7384946792
C     1.0147189863     -2.3050784588     2.8652233
C     -0.9462569561     -0.9387890701     3.5267868457
C     0.431554178     0.9732649861     3.5247509857
C     -0.9605195851     0.5278272387     3.5618141073
C     0.8585868314     1.8779924735     2.4831846883
C     2.8169518921     0.4202406844     2.062280954
C     2.0377904021     1.5626460362     1.6681174615
C     2.9364977846     -1.8447727054     1.3700678788
C     3.3820849627     -0.4703483863     1.0563379837
C     2.3300551623     -2.589959658     0.3338343355
C     0.2736630669     -2.8476911341     1.7392557451
C     0.9847497596     -3.0527526528     0.5067787314
C     -1.725525092     -1.5750970228     2.5298013332
C     -1.1195974236     -2.5131285908     1.641352533
C     -2.7135433893     -0.8210771168     1.763593227
C     -1.9298207301     1.226602337     2.8661288184
C     -2.8694794135     0.5361916614     1.9584518397
C     -0.1751202051     2.6515199502     1.8684335452
C     -1.5370240679     2.4097824294     2.1975851049
C     -0.1273844205     3.0427336837     0.4685333309
C     2.0749235829     1.9666870034     0.2506414611
C     0.939429016     2.6782916368     -0.3756961554
C     3.4703959981     -0.0628239167     -0.2389187666
C     2.9277371989     1.2345741689     -0.6240339471
C     2.4882193801     -2.178139088     -1.0441281452
C     3.1784422082     -1.0003292984     -1.3428572798
C     0.3235873909     -2.9458826842     -0.7853832868
C     1.2555133755     -2.4608884123     -1.7618386933
C     -1.7793276436     -2.3881538032     0.3433595005
C     -2.7722930282     -1.366995711     0.4144387091
C     -1.0747115104     -2.6384911324     -0.8724293869
C     -3.1184825266     -0.5728986022     -0.7226453556
C     -3.1178219824     1.3975479161     0.7995713814
C     -2.333226442     2.5571852019     1.0047773551
C     -1.513251318     3.0888684066     -0.0220772926
C     -3.2773280776     0.8778828177     -0.5296236121
C     -1.8207839481     2.7436663083     -1.3155307863
C     -2.838194035     1.7479277003     -1.5921964098
C     0.6379194465     2.5310537151     -1.8269671863
C     -0.7357724473     2.6147615183     -2.29057783
C     2.6219944787     1.12971631     -2.0046137527
C     2.7619591815     -0.2237300026     -2.4495026247
C     1.4823325918     1.7192158394     -2.6238810708
C     0.8198832023     -1.6677550737     -2.8772557413
C     1.6169796975     -0.5311797258     -3.2460386937
C     0.9586243968     0.735141481     -3.5666377397
C     -1.5479395995     -1.9940165015     -2.0393093151
C     -2.630378338     -1.0562783382     -1.9841489193
C     -0.6076657692     -1.5745208321     -3.1003492763
C     -2.4875974833     1.2093266187     -2.8611222922
C     -1.1979294234     1.7926119456     -3.3231661004
C     -0.3958393773     0.7491258491     -3.8815289657
C     -2.4285473457     -0.1487352212     -3.080813324
C     -1.1612625782     -0.4725015769     -3.7525218807


