58

 C     1.6091026836     0.0576371782     3.9107914867
C     0.797115651     -1.1338417228     3.8551214379
C     1.3538044579     -2.0678129123     2.9354607046
C     2.627273027     -0.048624241     2.9636478725
C     2.5243037768     -1.3816754286     2.3675236116
C     2.5972958161     1.1152231942     2.0925006854
C     0.7765518442     1.1768307012     3.513917915
C     1.4377449192     1.8913730255     2.4552637578
C     -0.5656117865     -0.7188984925     3.6771675397
C     -0.5443273701     0.7213736569     3.3268104057
C     -1.4153997073     -1.5507044971     3.0071731474
C     0.4911213722     -2.8700395532     2.1097105575
C     -0.9146784474     -2.7717981362     2.3938372516
C     0.8673294796     -3.111406742     0.6960222891
C     2.7738210625     -1.4901438863     1.0215798026
C     1.9877940976     -2.3932251552     0.1729408846
C     2.9336645514     1.0005785671     0.7186863884
C     3.1447782719     -0.3294320624     0.2250709518
C     2.4466111224     2.0240446764     -0.2020703123
C     0.6748669918     2.5552878874     1.4720601405
C     1.3438621336     2.8973608452     0.2165573591
C     -1.3344478037     1.2252600262     2.2384417423
C     -0.7657319212     2.3184722941     1.4701325348
C     -2.4399431673     -0.9932713289     2.1008566323
C     -2.3387314138     0.3624535353     1.6257010309
C     -1.873179491     -3.1320682432     1.4067350284
C     -2.8283930601     -2.0171314365     1.2370137259
C     -0.1380304181     -3.4366811094     -0.2752573442
C     -1.5126784163     -3.5424428234     0.1419510427
C     -0.1355846245     -2.8455707797     -1.5987835219
C     2.0158685435     -1.8845251708     -1.1550473114
C     2.7798816567     -0.6414001887     -1.1137476896
C     0.9090519982     -2.0077777126     -2.0482666872
C     2.552280881     1.7382047448     -1.6004368693
C     2.5550888868     0.3654272015     -2.0291525166
C     1.7606127947     2.4424985038     -2.5623259807
C     0.5584942266     3.5567870731     -0.7791993376
C     0.8374705526     3.386636629     -2.1896590481
C     -1.4848994262     2.7385941976     0.3246789726
C     -0.8618923155     3.5189931063     -0.6597456559
C     -2.81459321     0.6263616538     0.2595543902
C     -2.4695860113     1.8663004035     -0.310502535
C     -3.0803998945     -1.8143764909     -0.1581381089
C     -2.3390644073     -2.8298113361     -0.836888236
C     -1.5206611386     -2.4871673015     -1.9241286878
C     -3.1045350433     -0.4835275741     -0.667674591
C     -1.7874420341     -1.2974761852     -2.6004632441
C     -2.6782790878     -0.323999686     -2.0273665903
C     0.6213449948     -0.9066478022     -3.0083574956
C     1.5529105222     0.1900441362     -3.0989445198
C     1.1420361225     1.4681263596     -3.4943118907
C     -0.7375429198     -0.5832271459     -3.2988374562
C     -0.429684999     3.0584862324     -2.8950349301
C     -1.4394487458     3.1503797891     -1.9648100841
C     -2.3840285858     2.0831740748     -1.7502397655
C     -2.3173867955     0.9578549843     -2.5741238162
C     -0.2377042091     1.8151489086     -3.6317005283
C     -1.1781959671     0.7857915682     -3.481694545


