58

 C     1.3744107561     0.2043082719     3.9557804051
C     2.563723483     0.003063119     3.206838813
C     2.4949760031     -1.3342130034     2.6710793355
C     0.4981857051     -1.0090137369     3.7823069683
C     1.1895291718     -1.8994581033     2.9425521514
C     -0.8073389241     -0.5676251897     3.4564059208
C     0.599604658     1.3236197496     3.7885246385
C     -0.7900135982     0.8748407221     3.5643559881
C     0.9235580462     2.2908507654     2.7702091444
C     2.8965219049     0.8985536058     2.1508628934
C     2.1161046547     2.1062298865     1.9562057439
C     2.9662513892     -1.2919917837     1.3414949753
C     3.2390605396     0.0806821233     0.9786291506
C     2.3755129221     -2.1325507882     0.3966392372
C     0.4640537866     -2.6054830753     1.9099169983
C     1.1899152967     -2.9114504615     0.726481075
C     -1.5688112738     -1.2016287855     2.4213141579
C     -0.9775416678     -2.3746888874     1.7747234544
C     -2.4872632397     -0.3616934593     1.6480220319
C     -1.3327139605     1.6551889329     2.5606045913
C     -0.3098782318     2.6159090724     2.1125906586
C     -2.2776580609     1.0885395163     1.6335319016
C     -0.3463453146     3.1343731756     0.7939488551
C     2.0758242182     2.6230844759     0.6420783473
C     0.9110997515     3.3107048782     0.1278805133
C     3.0296165759     0.523472417     -0.3503950434
C     2.6682312538     1.9049974959     -0.4919308971
C     2.3148955764     -1.7633126523     -0.9868394291
C     2.5843441991     -0.4250010746     -1.3992976465
C     0.534497072     -3.2235417369     -0.5134079022
C     1.2689245604     -2.5633019672     -1.5983153416
C     -1.6037957185     -2.8681042251     0.5946726224
C     -0.8403467894     -3.327062506     -0.5681710302
C     -3.1103029653     -0.9314541376     0.504056199
C     -2.7519988055     -2.2312872945     0.0828634018
C     -3.3787336517     -0.1619083651     -0.7091334503
C     -2.4594262755     1.7998288989     0.4288860851
C     -1.4965320113     2.8092164939     -0.0093634518
C     -3.0113950799     1.1712982663     -0.748021706
C     -1.4259222774     2.7561233424     -1.4404488188
C     -2.356571369     1.7400182285     -1.9194960765
C     0.9560678938     3.2381764602     -1.2922795889
C     2.0300531701     2.3423792411     -1.6616357522
C     -0.169140003     2.9118444928     -2.0693482205
C     1.8684174513     0.0578235697     -2.5920714859
C     1.5741837637     1.4572483354     -2.6784844989
C     0.2451876506     1.9141995039     -3.069651468
C     0.6153454122     -2.1421959001     -2.7273879843
C     0.9444539102     -0.8202110994     -3.2662104951
C     -1.5513032116     -2.9228927397     -1.7870316808
C     -2.7509618017     -2.2884786686     -1.378109984
C     -3.1291760341     -1.0146834694     -1.8766008022
C     -0.825882553     -2.3769649712     -2.8727411868
C     -2.0447985521     0.9278626196     -2.9993867774
C     -0.6773828708     1.0114148563     -3.5667991156
C     -0.2503853854     -0.3186088088     -3.8353353772
C     -2.437840232     -0.4786386711     -2.991793882
C     -1.3430909081     -1.2284069647     -3.523767165


