58

 C     1.5554927844     -0.0249364941     4.0013514479
C     0.7167434271     -1.1934598938     3.8889610548
C     1.2667069408     -2.0642045838     2.8916437893
C     2.5005373864     -0.0858499931     2.9629587484
C     2.4346254901     -1.3774617707     2.3420433538
C     2.332898049     1.0729139846     2.0933387584
C     0.7231553576     1.1175169131     3.7603741629
C     1.2308061404     1.8522164108     2.6336880762
C     -0.6425122892     -0.771537045     3.7627832937
C     -0.6456630809     0.7138515296     3.7527976822
C     -1.5045302841     -1.4343938437     2.8639558082
C     0.3969486346     -2.7474419476     1.9792134526
C     -1.001118769     -2.43906674     1.9811258234
C     0.9478616661     -3.120548984     0.7305341855
C     2.8114738034     -1.5286626202     0.9986002869
C     2.2598855512     -2.6834125956     0.3397241014
C     2.5643372379     0.9826382464     0.7060561491
C     3.0411978568     -0.3117150232     0.1769387315
C     1.8725706865     1.9354737883     -0.1768376815
C     0.3504745622     2.5252918868     1.7550465116
C     0.7793814423     2.7247313293     0.3708844858
C     -1.5272961805     1.3997844886     2.9213756223
C     -1.0570083745     2.4338087375     2.0402305402
C     -2.5469041692     -0.6982784081     2.1456370003
C     -2.5916611978     0.6862692121     2.2078822375
C     -1.7582471067     -2.3693862827     0.7200177194
C     -2.7399946129     -1.3402685254     0.8589067193
C     0.1336253008     -3.2336387133     -0.4973457696
C     -1.1880097471     -2.6635392017     -0.5429728715
C     2.3307536944     -2.8016555503     -1.0670410043
C     0.982647155     -3.142002015     -1.597654576
C     3.0625587079     -0.4662727439     -1.2209247844
C     2.7965443983     -1.7618043644     -1.8184924657
C     1.9431668272     1.7351405616     -1.6297106379
C     2.4978336408     0.519471269     -2.106210968
C     0.9911958615     2.3911874399     -2.4995647431
C     -0.2003405125     3.250492613     -0.5358393317
C     -0.0245236615     3.1783363904     -1.9262066186
C     -2.0129251355     2.5630088729     0.9641974094
C     -2.9430475131     1.4508093258     1.0248766848
C     -1.6329492006     3.0796888891     -0.2546197633
C     -3.1410310531     -0.6136640373     -0.2627977208
C     -3.3235068057     0.8175427559     -0.1617940252
C     -1.5827075447     -1.8924891251     -1.7366454999
C     -2.5974500375     -0.9083984408     -1.567489552
C     0.694585619     -2.3174294382     -2.7191219793
C     1.8969514982     -1.563744092     -2.9679749949
C     1.8195677746     -0.2030174782     -3.2016934566
C     -0.6036403594     -1.6774035239     -2.8248677737
C     0.3556053043     1.6543290688     -3.5919149736
C     0.610512847     0.3039357197     -3.7431329145
C     -0.6420572921     -0.4574242545     -3.5517030808
C     -1.3235652819     2.8045199491     -2.534933145
C     -2.2664742124     2.6105571258     -1.4821473509
C     -2.996176655     1.4042707116     -1.446795167
C     -2.6310053599     0.3206839309     -2.3522984048
C     -1.0897136376     1.8390696375     -3.4928558848
C     -1.6865855611     0.5255669313     -3.3635567073


