58

 C     1.4657083901     -0.4078592021     4.7304343355
C     0.5743587243     -1.4008684849     4.4557100199
C     1.0683550804     -2.21759568     3.3292784778
C     2.5703095737     -0.5217183975     3.7568945641
C     2.2695096882     -1.6092548353     2.8090707525
C     2.7474652153     0.7362410937     3.2253216254
C     0.7751468293     0.8897286532     4.5011716403
C     1.618511807     1.6342736767     3.7013724185
C     -0.7058498852     -0.8252928789     4.0429660408
C     -0.56203187     0.6183330949     3.9820911313
C     -0.0070479111     -2.4089099712     2.4668781485
C     -1.1321339683     -1.5256731126     2.9005867198
C     0.2135290909     -2.5170906074     1.0871093727
C     2.3920212519     -1.4066830625     1.3919413481
C     1.4607261739     -2.0984477133     0.5169423499
C     2.9048711888     0.964249648     1.8360983976
C     2.859174466     -0.0990058323     0.8747753761
C     1.1619117729     2.3599337709     2.5810551725
C     2.158042091     2.1796475644     1.5357204308
C     -1.048305395     1.297190884     2.8169391834
C     -0.2118580147     2.313687799     2.159928918
C     -1.8978376115     -0.8897459895     1.9059530539
C     -1.9522670714     0.5565660489     1.9242730754
C     -0.9758319531     -2.4715928331     0.265991347
C     -2.0510866079     -1.5953632666     0.6398644598
C     -0.7883953734     -2.8411007258     -1.0813693214
C     1.5035083763     -1.9153952312     -0.9396263151
C     0.5179487776     -2.5537957122     -1.7156284781
C     2.6241424496     0.2661963408     -0.5123364525
C     2.1619378662     -0.7340651336     -1.4921290317
C     1.8700783747     2.4837940648     0.2477570358
C     2.3436006644     1.634157112     -0.8149687316
C     -0.4984888845     2.7256361497     0.7855260001
C     0.5699743879     2.9872831573     -0.1271039374
C     -2.3685209995     1.1576108023     0.7189323383
C     -1.7081303901     2.2876929002     0.1686269359
C     -2.8288875458     -1.0120966327     -0.4329491548
C     -2.9733924142     0.406032524     -0.3818973988
C     -1.7936175469     -2.6403866372     -2.0120485087
C     -2.8140992879     -1.6435653778     -1.7318600037
C     0.239417793     -2.2078659766     -3.0942217697
C     -1.1906069226     -2.3684502627     -3.308701358
C     1.7953630325     -0.3236900516     -2.7945444417
C     0.8890989568     -1.0813858648     -3.6438592514
C     1.580335657     1.9849275342     -1.9596314996
C     0.4325048422     2.7666601767     -1.5365929041
C     1.4934923161     1.1000959383     -3.0395083289
C     -1.9081156485     2.2526277645     -1.2692631065
C     -2.8478066286     1.1876369661     -1.572934315
C     -0.8299821422     2.5148209629     -2.1666523921
C     -2.9263348409     -0.8660444198     -2.9057847204
C     -1.9447572947     -1.3583071555     -3.9113739701
C     -2.8268398462     0.5615669914     -2.8457107912
C     0.1005875427     -0.1289676755     -4.4093873316
C     0.4162450474     1.1995924446     -3.9169469726
C     -0.8172284993     1.8453053974     -3.4601715848
C     -1.2952762927     -0.2323968736     -4.4540763338
C     -1.8731465916     0.9911261167     -3.8279322744


