58

 C     1.2380071407     0.0899391574     4.0712349026
C     2.4256470122     -0.0599384136     3.2929066591
C     2.403795451     -1.3983085294     2.7128595101
C     0.4214149829     -1.1491168686     3.9190192488
C     1.166313231     -2.0173246861     3.0815073166
C     -0.8920515167     -0.7597251781     3.5452667731
C     0.4193776112     1.1922894566     3.9259695566
C     -0.9377519043     0.6821906233     3.643768024
C     0.7164346878     2.1957037872     2.9527321572
C     2.7065275038     0.8645247457     2.2744288642
C     1.9148520973     2.0739401999     2.1435053878
C     2.7511199295     -1.3034627319     1.3467404184
C     3.0225501533     0.0814290424     1.0508219533
C     2.1282392082     -2.1221802036     0.3461276647
C     0.4713951619     -2.7385754546     2.0836844362
C     1.060011573     -2.9706059924     0.8010239398
C     -1.5968459741     -1.4100081528     2.4650359263
C     -0.9568437693     -2.5525647138     1.8936001793
C     -2.4504912081     -0.6051705043     1.5737553306
C     -1.4948714706     1.4501742111     2.6338257711
C     -0.5206977396     2.4893380369     2.2638651551
C     -2.3530617772     0.859005668     1.633828006
C     -0.5407181122     3.0776663462     0.9815553808
C     1.890965555     2.6580102942     0.8638116439
C     0.7326313879     3.3541793615     0.3669452417
C     2.8510231941     0.6006168471     -0.2396988056
C     2.5252773462     2.0110718343     -0.2990150529
C     2.1183330458     -1.6640803211     -1.0365102456
C     2.4591932999     -0.2837433264     -1.3553471145
C     1.269327083     -2.3926364077     -1.9515400702
C     -0.0152879413     -3.3376725553     -0.0938396068
C     -1.2736203872     -3.0159626248     0.5728410039
C     0.1178658387     -3.1691788164     -1.4394794804
C     -2.8486448138     -1.1722867849     0.3310081225
C     -2.2811303159     -2.4180987395     -0.1671330397
C     -3.1507212892     -0.3693419676     -0.8268353405
C     -2.5372670375     1.6167256044     0.4594285042
C     -1.6397544545     2.73122332     0.1175013297
C     -2.9707373718     1.0133639198     -0.7656897538
C     -1.5197524619     2.775775171     -1.3012076774
C     -2.3581412407     1.7243906666     -1.874563963
C     0.8280065658     3.3826237365     -1.0512283772
C     1.9491582719     2.5424196159     -1.4460671103
C     -0.2519155071     3.0533130915     -1.8797042458
C     1.9042578398     0.3246660803     -2.5753121061
C     1.563005541     1.7239675142     -2.5440759773
C     0.2424054904     2.1605054231     -2.9463496103
C     0.8733582188     -1.8462049046     -3.1640796108
C     1.1148656523     -0.4685369476     -3.4721170252
C     -1.0470244537     -2.8443678031     -2.2647147096
C     -2.2073385676     -2.3691186322     -1.6163136409
C     -2.7812080425     -1.0986570432     -2.03578358
C     -0.5513021938     -2.1560220229     -3.4068647631
C     -1.9780625076     1.0326642312     -3.0107740136
C     -0.6239165296     1.270516401     -3.5747058891
C     -0.1092547559     0.0397422555     -4.0256699716
C     -2.253382018     -0.3977846905     -3.1363459861
C     -1.143564703     -0.9813016059     -3.8476316505


