58

 C     1.2288001857     -0.1712652718     4.9425118307
C     0.4814040922     -1.2673014852     4.6096565334
C     1.2163299601     -2.1569665507     3.6882353175
C     2.5173268798     -0.2868299998     4.1978094549
C     2.4963440957     -1.5288167944     3.419548522
C     2.6760673856     0.9061385815     3.511861371
C     0.5079938606     1.0118077734     4.4553862984
C     1.4092588206     1.6998112192     3.6558411163
C     -0.7733269833     -0.8766049223     3.9788313005
C     -0.7398547067     0.5645870933     3.808959926
C     0.3493477862     -2.4673860315     2.6311739465
C     -0.9099879833     -1.6826953961     2.837597781
C     0.8236406068     -2.5771699866     1.2818740976
C     2.9239151107     -1.4907965769     2.0824121386
C     2.1720172525     -2.1819993887     1.0456139892
C     3.0540690318     0.963819459     2.1315827248
C     3.3394885229     -0.2322415222     1.4609925293
C     1.0747535248     2.1999864203     2.3691310715
C     2.1541761622     1.9066907842     1.4509609432
C     -1.1321962155     1.09732669     2.5599280308
C     -0.2521566068     2.05932179     1.8650024879
C     -1.581865786     -1.1865199633     1.7120250493
C     -1.8466973676     0.2177214462     1.6389429632
C     -0.1347665473     -2.4683457613     0.1858257511
C     -1.4235358772     -1.8707615754     0.4357465731
C     0.3488739322     -2.3879652687     -1.178537027
C     2.4704733443     -1.5780582338     -0.231777796
C     3.0684788428     -0.3077427462     0.0462507149
C     1.6635494354     -1.7775201874     -1.3704415071
C     1.9321681054     1.8642315159     0.0663670795
C     2.5828379222     0.8025381754     -0.6999733628
C     -0.4463052524     2.3000817893     0.4759329286
C     0.6638388428     2.3468686047     -0.44378626
C     -2.3313846062     0.7415773331     0.398167539
C     -1.741290173     1.9495252924     -0.0917515264
C     -2.280777927     -1.4777534323     -0.6300179979
C     -2.9474762638     -0.1606230015     -0.5707990602
C     -0.5904514481     -2.2657262978     -2.2133880832
C     -1.9821763602     -1.9916397657     -1.9266987699
C     -0.2744399304     -1.6020293793     -3.4868491857
C     1.7617812383     -0.8012976765     -2.4013447477
C     2.0951033826     0.5297894984     -1.9942642665
C     0.8148602275     -0.7216076858     -3.4865318946
C     0.4013050379     2.2959185075     -1.8791218453
C     1.180629296     1.4122226551     -2.6802664944
C     0.5646282328     0.6898180376     -3.7833238295
C     -2.0458447157     2.3613618852     -1.3964199535
C     -0.9181717959     2.5979887701     -2.35383161
C     -3.4860175167     0.405684793     -1.7485478185
C     -3.1199381658     1.7705088048     -2.0805882666
C     -2.5925797607     -1.4281171458     -3.0788888444
C     -1.5047880657     -1.1750668333     -4.0829433366
C     -3.4475060884     -0.3368871809     -3.0221657566
C     -0.6673707582     1.1088800554     -4.3113018415
C     -1.3507031309     2.1878184836     -3.6227177779
C     -2.7676793483     1.7922361601     -3.4949342758
C     -1.6858996427     0.0959329075     -4.6031886511
C     -2.9982721347     0.5775415252     -4.079768223


