58

 C     1.2727594863     0.0434614472     3.5726151163
C     2.4237590329     -0.2536415839     2.8796770511
C     2.4172546888     -1.673380315     2.4824172667
C     0.4306560503     -1.1551797603     3.5155737575
C     1.1303832512     -2.1884948149     2.7633925933
C     -0.825922921     -0.7425004349     3.1087975777
C     0.4938245348     1.1944466471     3.2086627959
C     -0.8465909704     0.7405889934     3.0646819673
C     1.0211596433     2.1897766619     2.3032946311
C     2.872230505     0.5500764745     1.7804205262
C     2.2502292703     1.832280423     1.5344406489
C     2.9369733685     -1.7221298562     1.1689801545
C     3.2046472733     -0.3485464201     0.7157904117
C     2.4184683506     -2.6410999862     0.2839795986
C     0.4426114793     -2.9908381414     1.7887895167
C     1.2520055381     -3.4201548688     0.6767692053
C     -1.6017731937     -1.5177098794     2.159002684
C     -0.9931314387     -2.720932982     1.5424756576
C     -2.6029618974     -0.8020614632     1.4711869098
C     -1.7743550546     1.4486472588     2.268821886
C     -2.7117066678     0.6723661479     1.5241096626
C     0.0746747102     3.0345924412     1.6869954306
C     -1.3539392139     2.7181929597     1.7408435566
C     0.3399502308     3.6820995319     0.4045661766
C     2.4090063253     2.3297352662     0.2313473229
C     1.4910963925     3.3203934752     -0.3270035653
C     2.9874091497     0.0234613014     -0.642673909
C     2.7948367111     1.4209573098     -0.8482712256
C     2.2539372611     -2.2949806796     -1.1372726257
C     2.4038521645     -0.9278035037     -1.5901117044
C     0.6417996607     -3.836938249     -0.5372308274
C     1.2657243628     -3.1190365793     -1.6663524557
C     -1.5601795526     -3.1662853857     0.3101460867
C     -0.7220370433     -3.7642131698     -0.695429636
C     -3.0510462706     -1.2129045004     0.1699231125
C     -2.5235278809     -2.3517813717     -0.4080547247
C     -3.1875989932     1.1328414453     0.2626565427
C     -3.3221750413     -0.0156304171     -0.6160473637
C     -1.9404954563     3.1979145818     0.5483287215
C     -0.8921070203     3.7847307823     -0.2924870561
C     -2.7659805018     2.3853411326     -0.2531434874
C     -1.0595263243     3.3227545609     -1.6217602699
C     -2.2443074858     2.4533171559     -1.6269594856
C     1.3529504361     3.0535121444     -1.7112014171
C     2.1436501426     1.8536963783     -2.0161634311
C     0.0978526967     2.9345105407     -2.3449432295
C     1.4789879684     -0.4484396538     -2.6088024831
C     1.3889401247     0.9708224849     -2.8039128069
C     0.1130722838     1.6513545882     -3.0678255038
C     0.2230607087     -2.6031912005     -2.5077096504
C     -1.0060698037     -3.1214155712     -1.9896262501
C     -2.1214288056     -2.2953132397     -1.823521625
C     0.3003657558     -1.253010584     -2.9712526007
C     -2.8613398406     0.071213633     -1.925304852
C     -2.2355593149     1.3011639674     -2.3934080621
C     -1.0317470387     0.8904620826     -3.1244001733
C     -2.1414155802     -1.0556129065     -2.4944661015
C     -0.9512062465     -0.5614842793     -3.1233500559


