58

 C     1.3148095216     0.2187013179     3.9462329886
C     2.5016552463     0.0208106884     3.2117550561
C     2.3950795047     -1.284543442     2.5612005729
C     0.4488005523     -0.9703930404     3.7595353779
C     1.1123688548     -1.8442145439     2.8439154137
C     -0.8530153949     -0.5264930856     3.4489286038
C     0.5428639157     1.3541328087     3.6934990757
C     -0.8311934243     0.9223963583     3.45871637
C     0.9233802111     2.2908055204     2.675030426
C     2.9750120036     0.9678393254     2.2705499143
C     2.1984584747     2.1685456048     2.0140494064
C     2.8689049096     -1.1659850232     1.2411994787
C     3.4177991449     0.1866010118     1.1109487505
C     2.1825838907     -1.7851884227     0.1557075785
C     0.3913564448     -2.4914560529     1.8065441337
C     1.0180937537     -2.5978416623     0.4909455876
C     -1.6362394487     -1.2058501351     2.4803229177
C     -1.0716308939     -2.3901528133     1.8499005717
C     -2.5738142654     -0.4068087659     1.6834794741
C     -1.3107148692     1.6053741207     2.3460340063
C     -0.2542730834     2.5189366999     1.8670101393
C     -2.2272783135     0.9920666901     1.4426917828
C     -0.2055493045     2.9136885011     0.5132634153
C     2.2713988306     2.7265559503     0.7013257251
C     1.0933218406     3.1838785846     -0.0177942721
C     3.4853213158     0.7454502208     -0.1339517979
C     3.1071605308     2.1267090443     -0.2863446458
C     2.2948877015     -1.1827740509     -1.1931950564
C     3.0004934003     0.0320542495     -1.3177308208
C     1.2741995402     -1.494539765     -2.2221692332
C     0.2092102455     -3.0681526671     -0.5845900179
C     0.2938343504     -2.4664007676     -1.9302731413
C     -1.8035548017     -3.0013849062     0.7992602874
C     -1.0998123459     -3.4867379875     -0.3707961005
C     -3.3242770083     -1.0931598286     0.6932029583
C     -3.0243193381     -2.4498501125     0.3590424201
C     -3.6755224023     -0.4158623167     -0.5136112493
C     -2.3468881186     1.5669950819     0.1070360858
C     -1.3054559296     2.496720992     -0.3890299357
C     -3.1186204171     0.8343669843     -0.841872739
C     -1.0645677097     2.5388209078     -1.7780571683
C     1.3443149209     3.0423953674     -1.4404790148
C     2.5787529341     2.3253759384     -1.5895727466
C     2.5618010284     1.0574072215     -2.2679079624
C     0.2921964479     2.7326513737     -2.2959922307
C     0.9176436883     -0.5133520478     -3.1979919064
C     1.5455349411     0.7952740376     -3.1807535075
C     0.50680974     1.77219673     -3.3446293031
C     -2.7077262685     0.7563629784     -2.2464440116
C     -1.7226068864     1.5954033817     -2.6848498381
C     -0.4781481223     -0.3451510395     -3.5689581216
C     -0.7055041045     1.0626483067     -3.5542058269
C     -1.0407246795     -2.4466369648     -2.4873817054
C     -1.8829934611     -3.1338016933     -1.5504639451
C     -3.083465962     -2.5674457389     -1.1179292451
C     -3.4814844394     -1.3220064981     -1.6448856576
C     -1.500235429     -1.241317953     -3.1305954836
C     -2.7384314935     -0.6536646738     -2.6488718436


