58

 C     1.4120015764     0.1153690704     4.2561358187
C     0.6657328395     -1.1349032842     4.064803229
C     1.5111122616     -2.0825589509     3.5377881131
C     2.6718145823     -0.0211035377     3.506380376
C     2.8316688714     -1.3919962381     3.2256764679
C     2.6720962054     0.9254679669     2.426351836
C     0.6731696789     1.1203011638     3.678328924
C     1.4836077792     1.7595281997     2.6408439396
C     -0.5841085727     -0.8277358349     3.3652212749
C     -0.6144046018     0.5860013508     3.2115648601
C     -1.0551781214     -1.6177195833     2.2757235585
C     1.118448054     -2.8474254114     2.3884171017
C     -0.198648195     -2.7040520827     1.7929179104
C     3.1751335119     -1.7854439478     1.9492310668
C     2.2365313635     -2.8332955198     1.509131409
C     2.9437400641     0.515811841     1.0634087413
C     3.2805740576     -0.8597767741     0.853622412
C     2.3030548398     1.2490902578     -0.0467279184
C     0.8570171583     2.410450843     1.619183537
C     1.4903616956     2.4041650156     0.2918638487
C     -1.2745566339     1.2290026205     2.146627011
C     -0.6260145191     2.4233317852     1.6117182816
C     -1.998718634     -0.9732668716     1.3483399284
C     -2.1490576047     0.4826449924     1.2912856665
C     -2.368605535     -1.707266883     0.2066053991
C     -0.3464977746     -3.1165105088     0.4151190665
C     -1.5841455871     -2.8294440646     -0.2241372848
C     2.0745348402     -2.7471785146     0.1299987413
C     2.7176044774     -1.5149009907     -0.3036986833
C     0.8456674376     -3.1391506906     -0.453793794
C     2.0537177341     0.6473678144     -1.339416913
C     2.2004505421     -0.8089692846     -1.4169848526
C     1.2187178339     1.3261657213     -2.3482176483
C     0.8581964952     3.1209232404     -0.7092649831
C     0.8085845508     2.6636101006     -2.0730868009
C     -1.2565158626     3.0895233014     0.5991387254
C     -0.4375100502     3.7601880853     -0.4190596722
C     -2.7386044188     1.1619735826     0.1179309081
C     -2.424573793     2.5451549278     -0.0706909108
C     -2.9520969458     -1.0557631585     -0.9807882616
C     -3.103003538     0.3713120875     -1.0554522838
C     -1.6984591355     -2.8704953836     -1.6556516088
C     -2.6003469416     -1.8150867653     -2.1074165374
C     0.7189495126     -2.7771918659     -1.8129292357
C     1.3598386558     -1.562756797     -2.2771813129
C     -0.5546037569     -2.8254208031     -2.4417803221
C     0.3747494317     0.5296797701     -3.2587374371
C     -1.9896652532     -1.1545492471     -3.2400096982
C     0.4624019852     -0.8996903368     -3.2174583832
C     -0.6790328925     -1.7163744733     -3.3837538655
C     -2.9128529468     0.9570391307     -2.3607395379
C     -0.928575819     1.0448399026     -3.6063487058
C     -2.1037892306     0.2164379373     -3.3322768487
C     -0.4095378719     3.226150663     -2.642779679
C     -1.1610388004     3.9007933004     -1.5723797946
C     -2.4182393924     3.1424194519     -1.3932939825
C     -1.2852397308     2.374827715     -3.2858690966
C     -2.5658558264     2.320455945     -2.4934320997


