58

 C     1.4788277443     0.0944539414     4.1870562395
C     0.6546701725     -1.0838893444     3.977407544
C     1.4053172639     -2.0347447172     3.2739488743
C     2.6503528582     -0.0692072511     3.3239740036
C     2.63687534     -1.3517139069     2.7855911377
C     2.7302376533     1.0258163893     2.3889218683
C     0.7706707325     1.1465862628     3.6074834843
C     1.5744847928     1.8465478712     2.6295215265
C     -0.6399781813     -0.7016821429     3.4349773001
C     -0.5678842482     0.7259539438     3.1822956892
C     -1.3050086753     -1.5179539301     2.5040760344
C     0.8299436205     -2.7144882168     2.1928769256
C     -0.5724994655     -2.6694267157     1.9711077607
C     2.7188773855     -1.5834077803     1.3752152294
C     1.7066939388     -2.5304351537     1.0262316851
C     3.1209667001     0.8222663655     1.0271936971
C     3.0379372479     -0.517381286     0.4463608915
C     2.8486117984     1.9353914335     0.1863192744
C     0.9434869839     2.5879548799     1.6042665692
C     1.758785514     2.873938331     0.4899897641
C     -1.2119813036     1.3312623257     2.0896249673
C     -0.5226209119     2.4547557926     1.4130945304
C     -2.3091793945     -0.880965887     1.6369174819
C     -2.2277873031     0.5539253256     1.3780546755
C     -2.9451135816     -1.7165305892     0.6701600561
C     -0.9929453383     -3.2018140317     0.7303895256
C     -2.2837986967     -2.9589799086     0.2633222137
C     1.204581768     -2.6609443214     -0.2988122256
C     -0.0822861106     -3.2454459593     -0.4208320963
C     2.618597545     -0.6676928769     -0.939176627
C     1.7016695308     -1.7536997025     -1.3271486472
C     2.8404516998     1.7727592538     -1.2001418421
C     2.6454775876     0.4977955286     -1.7747502829
C     1.1929506774     3.3496887278     -0.7479427901
C     1.8936615734     2.7227248894     -1.8139963409
C     -1.0516284275     2.9438537223     0.2256721069
C     -0.2105478625     3.4725170013     -0.8412375194
C     -2.7801988921     1.0933118891     0.1387831586
C     -2.2251067565     2.3010538057     -0.3971803484
C     -3.5360713402     -1.1670401842     -0.4929319881
C     -3.3795651242     0.1981522378     -0.8136324959
C     -2.2731521897     -2.9930848366     -1.1807548451
C     -0.8924338423     -3.0693279696     -1.5993287995
C     -3.065289695     -1.9426191507     -1.6375418235
C     0.8752917094     -1.5826023723     -2.475227678
C     -0.4294491009     -2.1887125618     -2.5866936065
C     1.7048124438     0.6888890462     -2.8825469384
C     1.219537564     2.0796469682     -2.8630258526
C     0.8335935032     -0.3212897489     -3.1972474603
C     -0.8360684092     3.1046095814     -2.0603660718
C     -2.1400286344     2.5059133743     -1.7889522336
C     -0.1685427441     2.332151697     -3.0481924587
C     -3.0258840793     0.3007617332     -2.2369888213
C     -2.6285271177     -1.0339339003     -2.6573684816
C     -1.341475911     -1.2049233939     -3.2019962636
C     -0.5614851767     -0.050835638     -3.5723693394
C     -2.3228586225     1.4097189287     -2.680001851
C     -1.0679681925     1.2423722409     -3.4244484962


