58

 C     1.19851108     0.0092406002     4.1795556461
C     2.3225700876     -0.1435238952     3.3965716248
C     2.2367543235     -1.4192609336     2.6721583554
C     0.3602985699     -1.1978260352     3.9590893404
C     0.9637718072     -2.0224192367     2.9396244516
C     -0.9357972524     -0.7758155301     3.7823447532
C     0.3486880661     1.1823621608     4.0091713407
C     -0.9855491359     0.6987588959     3.8343031696
C     0.7725892823     2.2216896077     3.1678765722
C     2.7707228181     0.8734975909     2.4750454085
C     2.0817840245     2.1055500677     2.4712764395
C     2.6760788797     -1.19406664     1.3663617328
C     3.0273848461     0.2233426205     1.2053829934
C     2.0905858641     -1.8998361129     0.2929275409
C     0.1965483259     -2.5021362891     1.8390129642
C     0.8975005237     -2.6844353854     0.5795909272
C     -1.7458170399     -1.2344771898     2.6939914286
C     -1.2406765441     -2.1578189076     1.7431120598
C     -1.8299594848     1.1324763152     2.7966457969
C     -2.4539157594     -0.0584550929     2.2183818878
C     -0.1580678405     2.8005391103     2.2087874043
C     -1.4343996155     2.211413236     1.9195150252
C     1.9931752397     2.7955546433     1.2473485018
C     0.6222628079     3.2709980615     1.1020720595
C     2.8001239104     0.8570554926     -0.0500013238
C     2.3357639241     2.2091861284     0.0096192999
C     2.3147220907     -1.3927230633     -1.0598638807
C     2.4878451546     0.0421782939     -1.2362599895
C     1.7510790227     -2.1536892003     -2.1137992362
C     0.1515963644     -3.1427298005     -0.5411561651
C     0.6982744465     -3.1036112973     -1.8150336562
C     -1.908455494     -2.1978104877     0.4311474091
C     -1.2872931983     -2.8633522363     -0.65042485
C     -2.9383727419     -0.016277003     0.9419093368
C     -2.8146335225     -1.1575006313     0.0700301809
C     -1.9412045317     2.2270151245     0.5331844921
C     -2.8070897956     1.1743383523     0.1287844962
C     0.2206605308     3.2001860887     -0.2254970796
C     1.3380375754     2.6305214469     -0.9709589098
C     -1.1201331461     2.8022267184     -0.545850701
C     1.8860450559     0.6799932397     -2.4011235876
C     1.1522328423     1.937195969     -2.1562660739
C     1.4295388352     -1.5441751998     -3.350562092
C     1.4207288639     -0.1456802167     -3.4798353798
C     -0.3788213405     -2.8846403273     -2.7727306198
C     -1.5852989384     -2.5825575265     -2.0260063135
C     0.0862236037     -2.0489076998     -3.7802495083
C     -2.9467388753     -0.7059720128     -1.2951025556
C     -2.9668770499     0.7498947708     -1.2421314715
C     -2.3636305397     -1.4181908815     -2.388856075
C     -1.3092729055     2.4030717435     -1.8763889746
C     -0.1682659721     2.1053019235     -2.7458686944
C     -2.3441140078     1.4598430354     -2.2645429043
C     0.1795401178     0.1925591085     -4.2063164516
C     -0.6723075348     -0.9692669112     -4.2336453369
C     -1.9320111761     -0.6269941587     -3.5480707769
C     -0.5975793521     1.2700076002     -3.791015957
C     -1.94535612     0.778151956     -3.4472641147


