58

 C     1.6030890779     0.0144684431     4.0025233973
C     0.8107192329     -1.1385835329     3.7975037855
C     1.3804378796     -1.817058243     2.6739896407
C     2.7171379267     0.0490824502     3.0811457908
C     2.5630572886     -1.0595866594     2.2108907329
C     2.800299076     1.3792240099     2.5431285752
C     0.8200837551     1.1785225421     3.8147556327
C     1.5481250761     2.0752234958     2.9562740217
C     -0.5531691431     -0.6778644226     3.6514075819
C     -0.5402376556     0.7823087178     3.5206243999
C     -1.3766876705     -1.403006231     2.8417170878
C     0.5608273516     -2.4897948143     1.7397172896
C     -0.8463010715     -2.4949244583     2.0381491388
C     0.9612914216     -2.5536584527     0.3202256463
C     2.8278889967     -0.9255581159     0.8042583067
C     2.0441762618     -1.6727997141     -0.1803383178
C     3.2571402998     1.527461675     1.2582714434
C     3.427799494     0.3311169193     0.4185310574
C     2.6988295287     2.5676897338     0.3842126581
C     0.8352931059     2.7684374696     1.997020476
C     1.4478352934     3.1213624593     0.7209826548
C     -1.2392446331     1.3814299245     2.4312944947
C     -0.5714338245     2.4599130311     1.7442079784
C     -2.3856278131     -0.7652873178     2.0158349326
C     -2.2404558019     0.6026142205     1.6730934958
C     -1.804242916     -2.8001845688     1.0396037012
C     -2.8242280874     -1.7419543846     1.0575616181
C     0.0150296196     -3.0616973333     -0.5812505674
C     -1.3680238895     -3.2956705643     -0.1903291881
C     -0.0178223662     -2.6515107796     -1.9939626491
C     1.9765884632     -1.2062379448     -1.5604005386
C     0.8785676708     -1.6197250718     -2.4520197841
C     3.3330505794     0.7448325233     -0.914037589
C     2.897956844     2.1490372946     -0.9541383088
C     2.6382816827     0.0248657993     -1.8936753904
C     1.9388958977     2.2879571111     -1.9625522455
C     1.9412879025     1.0166134367     -2.7070423013
C     0.4137221488     3.1842159671     -0.2662969819
C     -0.8221393303     2.7327676464     0.3757078214
C     0.6536499407     2.8664369318     -1.6327978708
C     -2.6340583994     1.0020041091     0.3083764737
C     -1.8704584576     2.0789835195     -0.364619781
C     -3.4193444084     -1.334298316     -0.1218532706
C     -3.3136190586     0.0642149621     -0.5070283528
C     -2.1878461427     -3.0788819803     -1.3418796499
C     -1.3316020514     -2.7564138893     -2.4809696297
C     -3.2178809516     -2.1370569364     -1.30497884
C     -3.1741641498     0.0888547     -1.9721059754
C     -1.9247475226     -1.6667063746     -3.2120788195
C     -3.0725550946     -1.2517358939     -2.4456999212
C     0.3647234619     -0.7168885944     -3.4281925952
C     0.8515620892     0.659722843     -3.4516323639
C     -1.0715162197     -0.6747975703     -3.7125282884
C     -0.4755013833     2.4459597163     -2.3981389565
C     -1.7564049911     2.10742214     -1.7697685672
C     -2.4019616889     1.0831266     -2.5868588932
C     -0.2987703889     1.5212173386     -3.4479937397
C     -1.4673022457     0.6947944634     -3.5858404361


