58

 C     1.2019237506     -0.0586905659     4.1635934182
C     2.3122979046     -0.2953771456     3.3864349545
C     2.2198050909     -1.6432800971     2.8019468229
C     0.3451827093     -1.2780761069     4.0450345499
C     0.9497287811     -2.2030146253     3.1027269598
C     -0.9357998614     -0.8436546044     3.8390950126
C     0.376488925     1.1102741118     3.9209178991
C     -0.9749242509     0.640029061     3.8381567103
C     0.8067092654     2.0563782159     2.9660334085
C     2.7129030483     0.6021405699     2.3211220007
C     2.0153368251     1.7997806874     2.1817724485
C     2.7230994097     -1.5833931018     1.4884487677
C     3.0349646536     -0.2017609241     1.138346667
C     2.1214371338     -2.3913978992     0.5265376944
C     0.1623982115     -2.7702905244     2.0295163637
C     0.8643683148     -3.0473376345     0.814442978
C     -1.7451362522     -1.3301199289     2.7550220758
C     -1.2552865779     -2.3663024031     1.8904637649
C     -1.8257798102     1.0280226229     2.8059453369
C     -2.4100339167     -0.1899579765     2.1973468666
C     -0.140396923     2.6309132285     2.0435097463
C     -1.4708128934     2.1225467671     1.9353285448
C     1.8255503289     2.326356367     0.8532494034
C     0.5568739452     2.9700922824     0.8069738556
C     2.833320651     0.2668475653     -0.1740282924
C     2.3509147639     1.651210106     -0.313165286
C     2.1602180111     -2.0087893839     -0.8553221755
C     2.5198943617     -0.690658566     -1.2555717521
C     0.1929660336     -3.198143077     -0.4523150265
C     1.0741314104     -2.7005822291     -1.5117529565
C     -1.8596155082     -2.4212202964     0.6027843101
C     -1.1741227795     -2.967927644     -0.5535268312
C     -2.8720738564     -0.1806558081     0.8631356671
C     -2.7097816751     -1.3763873739     0.1097546012
C     -2.099311413     2.1604988577     0.6524655025
C     -2.8521623351     1.0688982368     0.1475824097
C     -0.1106672723     3.1553971313     -0.4280270509
C     -1.4993845437     2.8413180863     -0.4947748238
C     1.8509812704     2.0622507437     -1.5472072418
C     0.6802009085     2.9502963278     -1.6183896976
C     2.0386982698     -0.2147080604     -2.558324561
C     1.8652640642     1.2104291806     -2.7305292935
C     0.5741273464     -2.2344552997     -2.6968956315
C     1.1759942111     -1.0717795601     -3.3414940345
C     -1.7063403152     -2.3531302725     -1.7492002039
C     -2.617392089     -1.3301654543     -1.3431873685
C     -0.8826758525     -2.1627561349     -2.8890023189
C     -2.797438077     1.1081563669     -1.3029293634
C     -2.0647769556     2.2984774591     -1.6894146168
C     -2.6996697166     -0.0902746252     -2.0703721122
C     0.059659901     2.6966896258     -2.8347498981
C     0.8601027762     1.7137051887     -3.5964933418
C     -1.3251322178     2.30585325     -2.8986522594
C     0.1492902616     -0.514818263     -4.1661197374
C     -1.1320106065     -1.0983384329     -3.7532362912
C     -2.0153853508     -0.0166636531     -3.3682004246
C     -0.0294917136     0.8644863255     -4.2528368701
C     -1.409229795     1.1930593268     -3.7819692994


