58

 C     1.4273989845     0.076435849     4.2329198599
C     0.6615669359     -1.1250904384     3.9674999801
C     1.4776794326     -2.0696245686     3.3301023095
C     2.634749585     -0.0246734637     3.4098379361
C     2.675596608     -1.3175630008     2.8779472019
C     2.6421134885     1.0318946959     2.4456759508
C     0.6905075326     1.1240406532     3.6745806942
C     1.4663879977     1.8543023309     2.7167634161
C     -0.6076988492     -0.7872867542     3.3339183935
C     -0.6057212197     0.6573724435     3.1901421998
C     -1.1613455007     -1.6029402093     2.313799617
C     1.0022029055     -2.8315932877     2.2505033257
C     -0.3802346606     -2.7561770395     1.8475958431
C     2.8729300014     -1.6192014565     1.4881994172
C     2.0181761818     -2.7521610642     1.192371305
C     2.9815887312     0.7823551786     1.0587898819
C     3.011180083     -0.5866096734     0.5196132501
C     2.6252441554     1.7941822507     0.1720428506
C     0.8329399675     2.5816104631     1.69937064
C     1.6803924515     2.8586752676     0.5696031244
C     -1.23995549     1.2830550238     2.1133358529
C     -0.5875818099     2.4341479214     1.4437058146
C     -2.1215008293     -0.9712560943     1.404954206
C     -2.2014555365     0.472624944     1.3815747857
C     -2.5913772985     -1.7046685302     0.2145716418
C     -0.6656245142     -3.2710790407     0.5521602712
C     -1.803093649     -2.7977613707     -0.236971783
C     1.6785847857     -3.029419793     -0.1055462142
C     0.379965099     -3.5689621838     -0.3481330477
C     2.5229187921     -0.8175966278     -0.8688025081
C     1.9428134304     -2.0687287218     -1.1621871687
C     2.482321871     1.6046162694     -1.2606280107
C     2.1966282538     0.3063220882     -1.7640493592
C     1.1732559772     3.4307564153     -0.5699271507
C     1.7688219599     2.7402774117     -1.7379242266
C     -1.1252540573     2.9362723739     0.1953983777
C     -0.2364222587     3.5432487791     -0.7875474124
C     -2.8851604282     1.125430903     0.3071070689
C     -2.3172130821     2.3438316553     -0.3122130672
C     -3.3400036408     -1.0008715255     -0.7943107181
C     -3.6047758586     0.4057503221     -0.6449391825
C     -3.0647820207     -1.2107406488     -2.1845215687
C     -1.4382558536     -2.8936535822     -1.6404583972
C     -0.0441878168     -3.1661619733     -1.6597166634
C     0.8666645454     -2.2031761737     -2.1517762565
C     -1.9244964188     -1.9522853666     -2.5460623467
C     1.1427481801     0.178863246     -2.8050947294
C     0.3977042984     -1.0794595002     -2.9123349504
C     -0.9884948779     -1.0666537497     -3.2606897213
C     0.7991571623     2.6292527292     -2.6927844317
C     -0.4415949787     3.2555261554     -2.1780548786
C     0.461776142     1.3586826548     -3.2507414457
C     -2.5827474717     2.238236324     -1.7178231696
C     -3.3920760255     1.073228195     -1.9279758322
C     -2.9746085673     0.097230667     -2.8210199638
C     -1.6862524524     0.1816573544     -3.4885193317
C     -1.5190203579     2.5045690387     -2.6340138637
C     -0.9830800147     1.3709462643     -3.4393178062


