58

 C     1.3386812283     0.1856231531     3.908313584
C     2.4607692349     0.0705475512     3.0829306513
C     2.4279636972     -1.2614023379     2.4791372884
C     0.4974320627     -1.0289334497     3.6932024123
C     1.1799494167     -1.8772284369     2.7632353902
C     -0.8218143017     -0.6194369778     3.455230068
C     0.5261245205     1.3031129494     3.8136098005
C     -0.8609024071     0.8200273107     3.6421193199
C     0.7495382669     2.2855420766     2.8020474293
C     2.6829447499     1.0012188887     2.0227229515
C     1.8127833899     2.130274636     1.8302679304
C     2.8739900595     -1.1719988525     1.15075035
C     3.1059115422     0.2268168101     0.860758348
C     2.3387073153     -2.0540125608     0.1625107898
C     0.4444813596     -2.5536281895     1.7289105796
C     1.1408862703     -2.8237569504     0.4746173798
C     -1.6012246165     -1.2311119181     2.4098579412
C     -1.0109738115     -2.389548423     1.7215951628
C     -2.5584079485     -0.3974589879     1.7040903532
C     -1.5374515748     1.640716171     2.7648920981
C     -0.5708604468     2.6764194189     2.3363251556
C     -2.4744393662     1.0667434953     1.8092570518
C     -0.7175909902     3.2565846552     1.1109369986
C     1.5942811202     2.6038212     0.4416124245
C     0.3852966502     3.2958844302     0.1632106695
C     3.0011647431     0.7019859167     -0.4590027427
C     2.282272039     1.9590724883     -0.6967790286
C     2.6086155434     -1.6676623214     -1.1771079602
C     3.0240293927     -0.3281555845     -1.4756463323
C     1.7648930104     -2.1295902159     -2.291074477
C     0.3607370116     -3.3064116134     -0.6390559162
C     0.624558554     -2.8608980891     -2.0147163574
C     -1.7201532614     -2.9192066374     0.6081048968
C     -1.0129056731     -3.468030554     -0.5064612151
C     -3.1387210369     -0.9256581232     0.4992016313
C     -2.8363131339     -2.2127344697     0.0726626278
C     -3.2923600815     -0.0970300559     -0.712415939
C     -2.75727339     1.8494676042     0.6663184331
C     -1.933358203     2.9869837416     0.3655721729
C     -3.0675661571     1.2462613526     -0.6271418427
C     -0.2378839243     3.2429399968     -1.1532350177
C     -1.6539303629     3.0215528864     -1.0085019577
C     -2.2953126264     1.9031532701     -1.6625806664
C     1.7340535037     2.1348647036     -2.0083872223
C     0.3989436006     2.6314584561     -2.1961780933
C     2.5550037543     -0.0335222232     -2.8026067114
C     1.6991462373     -1.1223361877     -3.2776545638
C     1.9146221482     1.1536099291     -3.0328132783
C     -1.6353987877     1.1524465954     -2.6695393442
C     -0.3393459494     1.6747801909     -3.0820200514
C     0.4423634083     -0.5824050959     -3.6971318242
C     0.5969364148     0.8478563091     -3.6627699474
C     -0.6398662946     -2.4865757916     -2.6330423246
C     -1.641910904     -2.9780312013     -1.7556374957
C     -2.7172498997     -2.1991417093     -1.4067166223
C     -2.8355348239     -0.8546475825     -1.8657301988
C     -0.7849244717     -1.1881071504     -3.2534197979
C     -1.8734057914     -0.3011044968     -2.7766349915


