58

 C     1.4609594783     -0.0663818102     3.9402645358
C     0.712983173     -1.2061678176     4.1148513179
C     1.2735111923     -2.2178471129     3.1871985232
C     2.4708209973     -0.2499606016     2.8971238946
C     2.3068132397     -1.5505634756     2.3679773984
C     2.4205037721     0.8802011626     2.0457922054
C     0.63465615     1.0531456613     3.5438504473
C     1.2556933668     1.6988598242     2.4321482757
C     -0.6989669602     -0.8166782226     3.9320024786
C     -0.71047903     0.5974734479     3.4777999021
C     -1.5511786995     -1.7228303809     3.3652056774
C     0.422188559     -3.1113972952     2.5994461915
C     -1.0119687881     -3.0370665121     2.9406313175
C     0.514767398     -3.3750339146     1.1406180738
C     2.3518874243     -1.7190630839     0.9468734018
C     1.3934748818     -2.6329026634     0.311932704
C     2.7220169093     0.7507857859     0.6874152975
C     2.8244670514     -0.6021313648     0.1652860353
C     2.2914081859     1.8357180028     -0.1983499972
C     0.4789113258     2.2989965737     1.4329888301
C     1.1021425338     2.5850426439     0.1318219085
C     -1.5076194097     1.0129566338     2.381649178
C     -0.9595694835     2.0693648421     1.5082253238
C     -2.5058918402     -1.2747795031     2.3298920282
C     -2.4688131844     0.0596536987     1.8123269905
C     -1.7045154901     -3.3901778322     1.8071631293
C     -0.8138959076     -3.596935453     0.6858640576
C     -2.6537373209     -2.3460214314     1.4193731616
C     -1.3400562426     -2.8961534931     -0.4413332442
C     -2.5083861968     -2.1274543827     0.0280925036
C     0.9406510654     -2.3378538766     -1.0617927107
C     -0.4807792188     -2.3255109984     -1.3889008386
C     2.7637784491     -0.7284974167     -1.2468961296
C     1.7611948253     -1.5415961017     -1.8579222641
C     2.6716177323     1.7269540236     -1.5748404798
C     2.9209214509     0.3957097871     -2.076526742
C     1.9933007479     2.4377244669     -2.5808749764
C     0.3002590144     3.1874210612     -0.9411272075
C     0.8005472455     3.1535171467     -2.3110311811
C     -1.6986991684     2.4285444817     0.3831395071
C     -1.1288619308     3.1539488481     -0.7673410282
C     -2.8498111006     0.2424531233     0.4327724931
C     -2.7295084976     -0.8571183453     -0.5106083824
C     -2.7062267873     1.5452825779     -0.1112223788
C     -1.0107967664     -1.2886597187     -2.2873963755
C     -2.2044189963     -0.6011587868     -1.8544260751
C     1.2914886574     -0.8459309925     -3.070339894
C     2.2120629704     0.213746356     -3.3269312035
C     1.7226964835     1.4874385078     -3.6991013872
C     -0.1218139613     -0.6549127757     -3.2698272089
C     -0.1061177294     2.8629206736     -3.4184903084
C     0.4253510978     1.6676723605     -4.1148016423
C     -0.5369008655     0.5881838401     -3.9105216061
C     -1.9914478532     2.9172415645     -1.8791530139
C     -2.7693617743     1.7552561395     -1.5000154446
C     -2.5021319843     0.678403006     -2.4246921497
C     -1.4326228211     2.6293155686     -3.1460762293
C     -1.7364973596     1.2068535434     -3.4791866702


