58

 C     1.126458394     0.0580016883     4.0354258398
C     2.2656783015     -0.2367802837     3.3339386529
C     2.213000748     -1.6508206285     2.8853798027
C     0.2777797911     -1.1598966913     3.9959150647
C     0.874151662     -2.1044477515     3.0867307225
C     -1.0139824324     -0.7464358095     3.8042516068
C     0.3195868788     1.1823027609     3.6376661037
C     -1.0351100894     0.7263061917     3.73903231
C     0.6939733591     1.9603030283     2.4743234362
C     2.723275032     0.5497216592     2.2294898647
C     1.9271667246     1.6390598179     1.7309477012
C     2.8618113248     -1.741729557     1.6583020759
C     3.339735447     -0.387620878     1.3039325595
C     2.2709571787     -2.5091668769     0.6381388417
C     0.1149754554     -2.5632639111     1.9296967592
C     0.8799417074     -2.8676348857     0.7632780121
C     -1.8296382711     -1.2313762928     2.725060521
C     -1.2855661744     -2.1138120892     1.7405846064
C     -2.0378237681     1.1155616857     2.8528965149
C     -2.653078757     -0.1090903883     2.3097646964
C     -0.3796385472     2.532131061     1.7200033327
C     -1.7620395517     2.1536196842     1.9501882574
C     -0.2535950974     2.868886806     0.3260007244
C     2.0336486978     1.9635921944     0.2990874216
C     0.9139970334     2.5822913386     -0.4274938747
C     3.5014257306     -0.050695458     -0.0032346486
C     2.9723822383     1.2212960335     -0.4848216771
C     2.5280062412     -2.1877095388     -0.7414096765
C     3.2797833382     -1.0460472726     -1.0678968654
C     0.309243252     -2.8227959565     -0.5679834613
C     1.3364593664     -2.4822693046     -1.5159442451
C     -1.8640166992     -2.0661678522     0.3862099008
C     -1.0639901665     -2.4854575372     -0.7746624822
C     -3.2038508495     -0.0856743412     1.0600356866
C     -2.9274070247     -1.152964086     0.1243352813
C     -2.4733865128     2.2220518534     0.7031139782
C     -1.5875517879     2.8248529393     -0.2719641511
C     -3.2910351772     1.1568667137     0.2942521618
C     -1.7691575473     2.5870345689     -1.6126076214
C     0.7436163665     2.398767812     -1.8862649077
C     -0.5880282945     2.453955371     -2.473420805
C     2.7813024189     1.0589761839     -1.8740958388
C     2.9453503937     -0.3255506549     -2.2332801367
C     1.6783733141     1.5965613309     -2.590738368
C     1.0244947961     -1.7825207192     -2.7206340529
C     1.8660924618     -0.676694911     -3.0974097244
C     1.23931081     0.5641818748     -3.5298146637
C     -1.4110051562     -2.0442606293     -2.078783795
C     -0.3691196292     -1.7116992329     -3.0729366258
C     -3.1950519225     -0.6356563109     -1.1971288418
C     -3.3839767704     0.8109496283     -1.0956411195
C     -2.790185983     1.650414768     -2.0641797417
C     -2.5381823553     -1.1758576213     -2.3084558948
C     -0.935293703     1.6233555799     -3.5464692147
C     -0.0758384592     0.5588909893     -3.975682433
C     -0.8472820044     -0.656258593     -3.8607882305
C     -2.2786673722     1.0633814859     -3.256433708
C     -2.1984783496     -0.3129589858     -3.407805632


