58

 C     1.1443166006     -0.1119491183     3.9815852141
C     2.3444837454     -0.4221669225     3.4302473004
C     2.3055508455     -1.8507735629     2.9976254664
C     0.2781994797     -1.331501124     3.8883051129
C     0.9288778196     -2.2936854191     3.0540620014
C     -0.9775089205     -0.8831650608     3.5835539156
C     0.3753956184     1.0245822073     3.505540967
C     -0.9696955645     0.5886077268     3.4989233787
C     0.8489147176     1.8143363542     2.3834301644
C     2.8844264337     0.3615105291     2.3292982362
C     2.123462815     1.4522279467     1.7659548756
C     3.0394687142     -1.9340722465     1.8483376664
C     3.4738937832     -0.5664116221     1.4532204613
C     2.5275081625     -2.5716376389     0.6912028681
C     0.2827019905     -2.7396048767     1.8341474938
C     1.153769903     -3.0205987397     0.6888428896
C     -1.7015383691     -1.3634570577     2.448970338
C     -1.1042766555     -2.2807528789     1.5452185981
C     -1.882808818     0.970178576     2.5154153998
C     -2.452758037     -0.2291304725     1.9357371566
C     -0.1738487712     2.4963421914     1.5758369071
C     -1.5955443138     2.0874692409     1.6779451135
C     0.2278252566     3.0931687583     0.3672924365
C     2.3037733377     1.7080687459     0.3329696284
C     1.4587579213     2.681378544     -0.2507479795
C     3.3799038305     -0.4786704477     0.050555149
C     3.0073391847     -1.7946896372     -0.447849833
C     2.8611545009     0.6944867809     -0.5643709028
C     2.3966094207     -1.9123693308     -1.6755186476
C     0.5555997893     -3.1350236339     -0.606024681
C     1.2819887393     -2.8032720777     -1.7798430541
C     -1.6450282899     -2.2641282802     0.1679426406
C     -0.8552359552     -2.8328226449     -0.8468508411
C     -3.0220907826     -0.1926906657     0.6606050736
C     -2.6965292855     -1.2923018158     -0.2484288637
C     -2.4677040971     2.236057024     0.5881805581
C     -3.3036488414     1.1290598656     0.1571101697
C     -0.7373015543     3.4007839725     -0.7138087132
C     -2.0923478148     3.0085178101     -0.5955818757
C     1.2459466058     2.7143340037     -1.6652739176
C     -0.0964409447     3.1979876694     -1.9483326253
C     2.3277261123     0.5539637845     -1.9339309254
C     2.098162671     -0.7384852254     -2.4607970779
C     1.5122232143     1.6098068211     -2.4647224368
C     0.3812786798     -2.2551427833     -2.7409413991
C     -0.9609198514     -2.3786645845     -2.2228549872
C     0.8503214375     -1.0071945082     -3.1951370794
C     -2.8848651203     -1.0249726606     -1.6351518217
C     -1.9002031158     -1.4583670119     -2.5956758896
C     -3.5314256117     1.3100101866     -1.2292989228
C     -2.7547511341     2.4687840031     -1.7158275938
C     -3.3443618607     0.2571457656     -2.0994081395
C     -0.6698713951     2.4051844023     -2.9934072612
C     0.3056528506     1.3662533581     -3.2933056599
C     -0.0873445192     0.0327863112     -3.5371942364
C     -1.5096710717     -0.2879889847     -3.4190708437
C     -2.0441922189     2.0762325821     -2.9012021956
C     -2.4433212672     0.7164258212     -3.1774987663


