58

 C     1.4460747383     -0.2508105806     4.8773869574
C     0.5494461814     -1.342228038     4.6674077195
C     1.0258373474     -2.0789346611     3.5310507067
C     2.4697801902     -0.3585444786     3.8609668547
C     2.1849525196     -1.4765457112     2.9589499628
C     2.7573570129     0.9044050439     3.279875352
C     0.7538015206     0.9404449216     4.4365291035
C     1.6032931103     1.7780266424     3.6669628475
C     -0.653410326     -0.8077514542     4.0942933615
C     -0.5562642354     0.5985453028     3.8783900721
C     -0.0508581173     -2.4490946419     2.6251016688
C     -1.1455820318     -1.6203915163     2.9922862314
C     0.2122857695     -2.6877895823     1.2647860998
C     2.2998646884     -1.3541647702     1.5123575239
C     1.4146330026     -2.1498916682     0.6383581897
C     2.9230937251     1.0145628418     1.9049685907
C     2.8093477415     -0.1116944201     0.9738649178
C     1.1241244167     2.3763765645     2.5083667578
C     2.1740980281     2.2033183059     1.5091660768
C     -1.0435025868     1.1767518549     2.6337671768
C     -0.2368511271     2.1942663653     1.995599767
C     -1.9504643044     -1.0505958441     1.9902006397
C     -1.9409330962     0.3902593301     1.7638588079
C     -0.9693688877     -2.7146481489     0.4921173013
C     -2.0616521909     -1.887793343     0.8584834159
C     -0.9543183001     -2.8034906798     -0.9355261093
C     1.3694469779     -1.9419666339     -0.7928297399
C     0.2530100765     -2.5073215812     -1.6096500967
C     2.6072240505     0.1898188542     -0.4301110628
C     2.0766590809     -0.8025115543     -1.3521503141
C     1.9324367995     2.4573578514     0.2153335799
C     2.3931309468     1.556005002     -0.8147171351
C     -0.4870823512     2.5321968735     0.6077600428
C     0.6269282255     2.8930132163     -0.2223094905
C     -2.3153356945     0.8474000049     0.4430948581
C     -1.6463923322     2.0158243227     -0.1033899803
C     -2.7124451722     -1.4725954129     -0.3458273981
C     -2.2233929499     -2.3046021158     -1.4275474282
C     -2.9399513906     -0.0902619487     -0.5386889641
C     -2.3310685683     -1.8638645082     -2.74327514
C     0.1027411961     -2.1357759875     -2.9981597045
C     -1.1752731508     -1.9368225853     -3.5800437207
C     1.8005237051     -0.3812479717     -2.7065350343
C     0.9485047388     -1.1093232853     -3.5480344096
C     1.7439398322     1.9404103253     -2.0305845045
C     0.6094220753     2.7992359539     -1.6500524092
C     1.5722172616     1.0270872171     -3.0383064272
C     -1.7555171391     2.3106615463     -1.5137922787
C     -0.5799684927     2.6562832288     -2.3164349219
C     -3.1307969505     0.3119999386     -1.9135886723
C     -2.945249333     -0.5969573552     -2.9863703782
C     -2.5854432021     1.5658620664     -2.3627016358
C     -1.1372894072     -0.7323569678     -4.4564369347
C     0.1769504998     -0.2238402185     -4.4145086868
C     0.4355702553     1.1159378972     -3.9678191189
C     -0.658043091     1.943799047     -3.6010070864
C     -2.2192521864     0.0866850837     -4.0935321399
C     -1.9909890825     1.4172820422     -3.6873536463


