58

 C     1.3732375133     -0.0019761734     4.1689419362
C     0.6043147661     -1.1545655201     3.8068474738
C     1.3170228122     -1.9261238942     2.8487081522
C     2.5386114693     0.0183313721     3.3518675411
C     2.5280980964     -1.1473181025     2.5212016761
C     2.6163805016     1.3036070055     2.6896630609
C     0.590828966     1.1256475683     3.7828693044
C     1.34464017     1.9942532144     2.928274843
C     -0.7476928844     -0.7559875968     3.4926590089
C     -0.743817884     0.7110891548     3.4014828626
C     -1.4598577816     -1.4902788709     2.5696143168
C     0.5999273835     -2.6389931318     1.8350823
C     -0.8301107186     -2.5451520902     1.8047929806
C     1.2421210807     -2.8154723748     0.5636461209
C     2.9659492292     -1.0782620787     1.1529848026
C     2.3751418265     -1.9958751557     0.2211613973
C     3.1952872354     1.3800137243     1.4239259184
C     3.3991224597     0.1717142945     0.6252103827
C     2.6968877124     2.3686124496     0.5379663028
C     0.6708470885     2.7029865979     1.8906233803
C     1.4614092727     3.0195976301     0.7277962511
C     -1.4455195774     1.3705096571     2.3759316551
C     -0.7728797047     2.4950389784     1.6960540196
C     -2.4166040223     -0.8350460066     1.7143285758
C     -2.4632188285     0.5772924346     1.6311005036
C     -1.555021148     -2.6543348535     0.5690865308
C     -2.5835643928     -1.6475608062     0.5333511059
C     0.5057000595     -3.1258651616     -0.6303921448
C     -0.926339937     -3.0670249102     -0.6534330813
C     2.2713377898     -1.7043514991     -1.1884496905
C     1.2295493233     -2.5357424182     -1.7358728341
C     3.1151964941     0.5101756561     -0.7656361402
C     2.7549808307     1.8730540091     -0.8250096806
C     2.474001678     -0.3887896001     -1.6701373211
C     0.8572073     3.137491539     -0.5964560596
C     1.632733708     2.3259613712     -1.552082722
C     -1.3329967951     2.9137455517     0.4670004849
C     -0.4952138317     3.1905152077     -0.7140004303
C     -3.0225744132     1.1089586805     0.4303322375
C     -2.5142204789     2.3356855466     -0.0465710183
C     -3.0914268614     -1.1152196058     -0.698740745
C     -3.3732376462     0.2807751501     -0.7189159209
C     -1.5839441893     -2.7399349222     -1.8824222767
C     -2.694854055     -1.7677464521     -1.9175262766
C     0.5812384625     -2.1537986465     -2.8900760675
C     -0.8130153897     -2.4937339303     -3.0513264389
C     1.5325484746     0.1508489367     -2.690987021
C     1.002495303     1.5188734702     -2.5272879553
C     0.739895039     -0.7796604768     -3.3872817838
C     -1.1385199973     2.6248265978     -1.8966909133
C     -2.433163303     2.2415552615     -1.4926785324
C     -3.0566245871     1.0439457365     -1.9258999133
C     -0.4138642664     1.7893300213     -2.8209295684
C     -2.5966364089     -1.0326703394     -3.1418093428
C     -1.4592784432     -1.5021149857     -3.8574606692
C     -0.5497026025     -0.4067158382     -3.9317505742
C     -2.518361174     0.40986236     -3.0445025113
C     -1.184450774     0.8060162544     -3.5081775125


