58

 C     1.5841923941     -0.3665529372     4.4253837775
C     0.7834157768     -1.4585631335     4.2741025023
C     1.3471595418     -2.3777765807     3.2610475075
C     2.7098365629     -0.5068535006     3.4733716764
C     2.5761774467     -1.7847714117     2.7763172345
C     2.749440435     0.6556010558     2.709781284
C     0.7963599558     0.8036782206     4.0366346686
C     1.520572962     1.4696835679     3.0633290391
C     -0.5579412423     -1.0541255515     3.8579317311
C     -0.5618075596     0.3752983073     3.6572751414
C     0.3182587376     -2.6689231027     2.3574913979
C     -0.8825607723     -1.8660342674     2.7667651058
C     0.5739496972     -2.7986831148     0.9421309089
C     2.8079565666     -1.8243198942     1.3908921654
C     1.8663375746     -2.4627580051     0.4977190158
C     3.1568233383     0.6213721139     1.328213444
C     3.2444871705     -0.6415952523     0.6797377129
C     2.7802032171     1.7292149951     0.5207926296
C     0.8661542356     2.2127600865     2.0329341887
C     1.7147482089     2.6297060384     0.9704161773
C     -1.1905336153     0.9162226525     2.5043044145
C     -0.5524721886     2.0143633775     1.7667817152
C     -1.717640995     -1.3790231515     1.762584286
C     -2.0144872407     0.0320091613     1.6952355848
C     -0.5433099585     -2.6813554368     0.0057761806
C     -1.7778827123     -2.1415062487     0.5255932768
C     -0.3048373687     -2.5316794746     -1.4230218798
C     2.013418628     -1.8819437139     -0.8376857062
C     2.8735011522     -0.7575305391     -0.7287520694
C     0.9911756985     -1.9611933044     -1.8119747333
C     2.7519793438     1.6704890555     -0.9214289907
C     2.6827705785     0.3772148815     -1.5646359666
C     1.1498126836     3.1926022038     -0.1698650051
C     1.8521926295     2.6725580349     -1.3580161547
C     -1.1068127993     2.4371455776     0.4901309678
C     -0.2232640944     3.1261331618     -0.4322056918
C     -2.7115737484     0.5277735905     0.5252603403
C     -2.2808663455     1.7956324602     -0.0739411565
C     -2.8046116034     -1.7887602218     -0.3393065142
C     -3.3900814735     -0.4325044599     -0.2756801028
C     -1.4176251638     -2.3144622622     -2.2754040909
C     -2.7143525624     -2.1456087029     -1.7092218003
C     -1.3553680776     -1.3759881377     -3.432481933
C     1.009021217     -0.9648279481     -2.8341132081
C     1.7981790492     0.223384845     -2.6762708847
C     -0.1917938653     -0.6373581743     -3.5971198161
C     0.9371283121     2.516704743     -2.4028350594
C     -0.3706659669     2.9576272656     -1.8827946421
C     0.9679739527     1.3242047967     -3.1643876125
C     -0.2323484949     0.8127042292     -3.7499773743
C     -2.5895334891     2.0013216132     -1.4718638579
C     -1.5122918154     2.4222389128     -2.3819795572
C     -1.4752218757     1.4729182028     -3.5169752088
C     -3.8396809384     -0.1149237511     -1.5969760118
C     -3.4489727151     -1.1826092881     -2.4739048546
C     -2.6338984697     -0.6929518288     -3.5379877008
C     -3.3622718365     1.0777800941     -2.191332592
C     -2.6585180975     0.7268401503     -3.4657939094


