58

 C     1.5911938263     0.0073440935     4.3305732152
C     0.7639500879     -1.1730158978     4.1214801893
C     1.47166267     -2.0667359545     3.3001164342
C     2.6504808583     -0.0665521801     3.3303537992
C     2.650486068     -1.3273356967     2.7543141224
C     2.5576715106     1.0714790842     2.4272841685
C     0.8009137692     1.089676501     3.9322129642
C     1.4408830637     1.8615631686     2.8721191532
C     -0.5868624033     -0.7859516904     3.7414871306
C     -0.57689655     0.6726020659     3.713602546
C     -1.2935042212     -1.4974815905     2.7300375085
C     0.8316044378     -2.6895325917     2.2277069628
C     -0.5838665387     -2.5867071262     2.0492365265
C     2.6609893311     -1.5108446071     1.3368703521
C     1.6682990041     -2.4839942226     1.0318328561
C     2.8038391559     0.9243045956     1.0223839678
C     2.85055086     -0.4059784463     0.4165028792
C     2.2906044077     1.9786133984     0.2190181714
C     0.6459230992     2.5951927231     1.9448492863
C     1.2343303395     2.824068167     0.6723693898
C     -1.3267737006     1.363274169     2.7764510409
C     -0.7795203227     2.4501984382     1.9909378586
C     -2.3038356488     -0.760924749     1.9261208333
C     -2.2818093634     0.6606454172     1.9517028161
C     -2.8160013589     -1.3545460733     0.7280628244
C     -1.0504999308     -3.0207742462     0.7807667492
C     -2.2764511569     -2.5944992113     0.2701312295
C     1.1672981387     -2.6342234295     -0.2768255957
C     -0.1453643375     -3.1539545837     -0.3848569754
C     2.4611048845     -0.5832820925     -0.9647307317
C     1.7089031769     -1.7868613696     -1.3430472836
C     2.1979084961     1.8654996512     -1.2146433593
C     2.3371710116     0.5976610984     -1.8332537582
C     0.4463987287     3.1761793022     -0.4915143359
C     1.191901917     2.8108725699     -1.671771316
C     -1.531793952     2.5135510131     0.7745554935
C     -2.5001675046     1.4395092989     0.7593105541
C     -0.9686265264     2.9904054611     -0.450196601
C     -3.1117693139     -0.5864398648     -0.4571175191
C     -2.9061885576     0.819228067     -0.4602015511
C     -2.2341439561     -2.5868760596     -1.1841444019
C     -0.9141722111     -2.9771475962     -1.5880575004
C     -2.7524355439     -1.3757716686     -1.6479820606
C     1.0280801983     -1.8495667863     -2.5909957796
C     -0.3349750524     -2.3583356901     -2.6828979481
C     1.7358230584     0.4620494393     -3.1486533665
C     1.1394472802     -0.8000816847     -3.5318773232
C     0.5217257478     2.5824333267     -2.8761093486
C     0.929263779     1.4784286345     -3.6923699791
C     -1.6152287922     2.5923612112     -1.6822989967
C     -2.5240761504     1.4242156701     -1.6999531819
C     -0.9136797707     2.5834215398     -2.8812795227
C     -2.2327110672     -0.7652091475     -2.855062619
C     -1.1009474674     -1.393055023     -3.4787380113
C     -0.1256392735     -0.5824660603     -4.1686586612
C     -0.2822583314     0.8144775471     -4.2686153331
C     -2.3283515359     0.6821757358     -2.9170893739
C     -1.379858387     1.4267139121     -3.6894485978


