58

 C     1.3253255604     0.0955806669     3.8901011481
C     2.5350417432     -0.1570951472     3.2509433918
C     2.4613057153     -1.4795866052     2.6386409656
C     0.4427133404     -1.0482527194     3.6257339765
C     1.1517149883     -2.0226980964     2.8353312832
C     -0.8115145448     -0.5861809532     3.2228759001
C     0.5955056546     1.3007844729     3.6250018752
C     -0.7835443909     0.8868236299     3.2941582667
C     1.1972640782     2.3187748489     2.8875693426
C     3.0674719744     0.7716121207     2.2892033708
C     2.4817599097     2.0493982292     2.2206503441
C     2.9787690761     -1.3583644871     1.3315986728
C     3.3227599502     0.0367361618     1.052496394
C     2.4041543454     -2.1363204375     0.3315981248
C     0.4683634865     -2.6830250461     1.7778583154
C     1.2350157151     -2.9285495012     0.5897731619
C     -1.5783203807     -1.2754615396     2.2142668254
C     -0.9724465364     -2.4443852176     1.5874061727
C     -2.5480363344     -0.4850855745     1.4608900589
C     -1.5435216144     1.6169281619     2.4183420055
C     -2.4630144257     0.9478174676     1.5176011815
C     0.3791998972     3.109323169     1.9427579353
C     -0.9813623564     2.7754865937     1.7305597239
C     2.4207701767     2.6710402589     0.9468523023
C     1.1706850761     3.4153697584     0.8185266201
C     3.0186140238     0.5855766456     -0.2291245686
C     2.6336976801     1.971254908     -0.2558626457
C     2.3392673451     -1.6548687693     -1.0377829867
C     2.5252224779     -0.2786309102     -1.3230010088
C     0.6110053772     -3.1910599904     -0.6839699137
C     1.3531847711     -2.4496400979     -1.7125180774
C     -1.5629788562     -2.9282754002     0.3832279876
C     -0.7533738506     -3.332100506     -0.7822355701
C     -3.1058165823     -1.0201926361     0.2701804747
C     -2.7010106481     -2.3036407678     -0.1531263657
C     -3.3320675655     -0.2131470497     -0.93261818
C     -2.5411381316     1.7123090898     0.3288920429
C     -1.5369780184     2.787431423     0.421339324
C     -2.9296717951     1.1419095799     -0.9269670921
C     0.6837284223     3.2758843594     -0.4968775011
C     1.6297705077     2.4328428152     -1.2125893029
C     -0.7205657178     3.077346219     -0.7228993672
C     1.7339267024     0.2821009693     -2.4368148588
C     1.2272474129     1.6705671325     -2.3159695495
C     0.7206818826     -1.9722441288     -2.8348012455
C     0.9862077308     -0.611773189     -3.2515009014
C     -1.4414038525     -2.9165671171     -2.0097160853
C     -2.6576399351     -2.3216286096     -1.6159802305
C     -3.1004154143     -1.0628543367     -2.1099701711
C     -0.7077741616     -2.2861030304     -3.0601503929
C     -0.2243255542     -0.1766049329     -3.9210854796
C     -2.4549471203     -0.5263557061     -3.2460342354
C     -1.2823839017     -1.1994853811     -3.7351208689
C     -2.3004132444     1.6778057528     -2.1270125345
C     -1.0783681506     2.5029874124     -1.9601626605
C     -0.0844078807     1.9828692033     -2.8401357817
C     -2.1492653837     0.8884093421     -3.2596976907
C     -0.7536686536     1.0652074825     -3.7106519521


