58

 C     1.5089652594     -0.0371556402     4.4188600964
C     0.688221473     -1.2696296299     4.3730984897
C     1.4541403942     -2.2423572795     3.7107314828
C     2.6215467807     -0.2155598627     3.495358194
C     2.6652143033     -1.5427717647     3.1267321866
C     2.5152305323     0.811804604     2.4463276776
C     0.7462038764     1.0095902233     3.9486661803
C     1.3748039093     1.6179180353     2.7591800598
C     -0.6067904263     -0.9369786839     3.8556538986
C     -0.6213208839     0.5312299171     3.78273089
C     -1.1856306652     -1.6654537047     2.7340934188
C     0.8955415155     -2.977342831     2.6700931276
C     -0.4162857769     -2.734008075     2.1672107101
C     2.7752626103     -1.9087317278     1.7442109615
C     1.8046476128     -2.9127481103     1.5096089341
C     2.7506721652     0.5030408541     1.0842719524
C     2.9407430627     -0.9101952062     0.7215098907
C     2.1950268714     1.4225370805     0.0816503003
C     0.5738096555     2.2278033993     1.7458537192
C     1.0449133494     2.2682137576     0.3756048808
C     -1.3846909576     1.1579153479     2.8582119311
C     -0.8432864475     2.2041576552     1.9648073473
C     -2.100944992     -0.9702213477     1.8236401992
C     -2.325105374     0.4128533079     2.0589409559
C     -2.2939771877     -1.4183842453     0.4250137105
C     -0.3442264833     -2.8482617153     0.698117329
C     1.0487716068     -2.9445687896     0.3297941874
C     -1.252303227     -2.2479832502     -0.1836972602
C     2.5588052281     -1.2842469178     -0.6066730366
C     1.5112452863     -2.2776055919     -0.8201657861
C     2.4411858767     1.1017611372     -1.2573912398
C     2.6895096381     -0.2812302272     -1.5963662981
C     1.7583815695     1.7251885453     -2.37452295
C     0.1488020047     2.6576651077     -0.7168102371
C     0.5641258829     2.4853351764     -2.1277367606
C     -1.7167699704     2.3546420097     0.8848600036
C     -2.7365513479     1.2775416392     1.0136643291
C     -1.2770218945     2.7363591786     -0.4140685804
C     -3.0510502756     -0.6259098244     -0.4478048185
C     -3.3288425959     0.7547623427     -0.1007568808
C     -2.8767043386     -0.6370770661     -1.901210302
C     -0.8538134254     -2.0301993574     -1.5869527508
C     0.5697128652     -2.0914967954     -1.8989310923
C     -1.7534792641     -1.3054367186     -2.4901624718
C     2.1720243757     -0.4854902198     -2.8754633207
C     1.8337375268     0.7965781699     -3.4739386333
C     1.0669335503     -1.3975556542     -3.0519711376
C     -1.2056189371     -0.724077839     -3.7213891093
C     0.7001412064     0.5910790263     -4.2639508836
C     0.174865191     -0.7896832631     -3.9549260883
C     -0.4572656293     2.4435393946     -3.16992308
C     -0.3624844675     1.4586775338     -4.2265437125
C     -1.6010624153     0.6264984005     -4.130876426
C     -2.2475816565     2.5487945696     -1.4763456446
C     -3.2805490222     1.5226495814     -1.2940079192
C     -3.2925220229     0.6610339702     -2.411302909
C     -1.8413188725     2.4856413803     -2.8070779323
C     -2.5359866326     1.3175499734     -3.4275298127


