58

 C     1.2002401221     -0.0919382121     4.1031470047
C     2.3078831541     -0.2953310259     3.3327171038
C     2.1774224887     -1.61122599     2.6595303213
C     0.3469392072     -1.3173871122     3.9712647391
C     0.9048774495     -2.1662722363     2.9247990846
C     -0.9396314451     -0.882219702     3.8627921859
C     0.3586924565     1.0801490381     3.8727200964
C     -0.9786110265     0.6118947934     3.8402140184
C     0.7462648477     2.0112564667     2.8843466697
C     2.7394190003     0.6514699416     2.3291712374
C     1.9924538651     1.8269764635     2.1530571737
C     2.6727537448     -1.4925991376     1.3655056108
C     3.101754554     -0.1105174896     1.1537479433
C     2.0480204476     -2.2087838416     0.3010159647
C     0.0857778105     -2.6197359567     1.8129776841
C     0.7039747673     -2.7431295994     0.4910834789
C     -1.825010887     -1.3896601215     2.8650086821
C     -1.3576253127     -2.3497980534     1.886827275
C     -1.8855915715     0.9774355376     2.8358266371
C     -2.5666151538     -0.2458415588     2.4120210536
C     -0.2240881253     2.4810363422     1.9109718343
C     -1.5375234541     1.9530274602     1.8186379734
C     1.8256118638     2.3557885546     0.8172203873
C     0.485456767     2.8295231833     0.6904885056
C     3.082746577     0.4500521039     -0.1461740183
C     2.4890395897     1.790571332     -0.3163059956
C     2.482786638     -1.8024773269     -0.9845882743
C     3.0058341659     -0.4790783222     -1.2160747662
C     1.72827186     -2.1432081591     -2.1395201609
C     -0.1483747797     -2.8310030964     -0.7184569892
C     0.4039822512     -2.5235160402     -2.0277148014
C     -2.1280162497     -2.4217029039     0.6920722662
C     -1.5333356706     -2.6703727458     -0.5913269616
C     -3.2103964397     -0.2747455063     1.1877039006
C     -3.1820298593     -1.4828738846     0.4610232779
C     -2.1887630903     1.8931915885     0.4878835125
C     -3.124811866     0.8517866227     0.2559795424
C     -0.1462223364     2.9419550195     -0.5699113091
C     -1.542022294     2.5037149109     -0.6897522057
C     1.9923181671     2.1639819929     -1.579195731
C     0.7355902309     2.8613757596     -1.7040161796
C     2.5915758349     -0.0456551934     -2.56006028
C     1.8578572626     -1.090504596     -3.1498864045
C     2.1494738643     1.2888261224     -2.7581410885
C     -0.3443951822     -1.7514667029     -3.0666832972
C     0.594842101     -0.8848003578     -3.7716960679
C     -2.2851051923     -1.894198119     -1.6182837722
C     -3.2569204419     -1.1690135954     -0.9380985809
C     -3.3031842916     0.2817737505     -1.0639474906
C     -1.6516930192     -1.328418094     -2.7852922156
C     -1.9729171037     2.0911253307     -1.9879321071
C     -2.7249806685     0.871798739     -2.1534000432
C     -2.0296643543     0.0357815647     -3.1654902734
C     0.2130784949     2.5390465638     -2.9921406775
C     1.0672713402     1.5145887528     -3.6257198317
C     0.2234422008     0.4443867191     -4.0981021874
C     -1.0991301688     2.1587083133     -3.1249685776
C     -1.1289931706     0.8562517234     -3.8368748866


