58

 C     1.5233194034     0.0737209366     4.3450171931
C     0.6721280534     -1.1014253864     4.0729322691
C     1.3788239584     -1.9756779248     3.2520203632
C     2.6510652036     -0.0029516113     3.4462966067
C     2.6294090138     -1.2653807486     2.8501732117
C     2.612012635     1.1429030947     2.5316259442
C     0.7686642413     1.1693049706     3.9343953969
C     1.4516831047     1.9176862804     2.8834118426
C     -0.6422409744     -0.6905258206     3.6624607943
C     -0.6155515017     0.7773851268     3.6936265831
C     -1.3052032942     -1.3300733093     2.5748302179
C     0.8030173614     -2.5037467425     2.0731042695
C     -0.5666576754     -2.2946001596     1.7482830832
C     2.823595354     -1.4568794252     1.4645860969
C     1.7894990083     -2.3477073672     1.0001817741
C     2.9906280754     1.0037024726     1.1582019807
C     3.197912661     -0.3540081248     0.6167436184
C     2.4386830897     1.9533719668     0.2476972134
C     0.6834942168     2.5900902023     1.8852008331
C     1.2643872198     2.7214279989     0.5909342308
C     -1.357982172     1.5014868226     2.7921228988
C     -0.7453592927     2.5035452995     1.9226262142
C     -2.3793216078     -0.5776498971     1.9208498506
C     -2.389354623     0.8426449537     2.0358191512
C     -2.9598409883     -1.1171022662     0.7412906459
C     -0.9775245552     -2.5521199619     0.3599789462
C     -2.2681607688     -2.162909916     -0.03178898
C     1.4395070574     -2.4393380457     -0.3534569926
C     0.0472111199     -2.736175892     -0.7043165865
C     3.0240500914     -0.5749253183     -0.7608127097
C     2.2565199358     -1.6981313994     -1.257351453
C     2.4235466321     1.7395587361     -1.1793159547
C     2.7889369266     0.500528629     -1.6993756062
C     0.4701349602     2.894074559     -0.5971303268
C     1.2497116197     2.4043818961     -1.7224287476
C     -1.5219586743     2.5563803246     0.7251991792
C     -2.647481674     1.654878686     0.8707936772
C     -0.9431025161     2.7526024914     -0.5767675133
C     -3.6030134987     -0.2775870531     -0.1902997146
C     -3.2698558072     1.1067428733     -0.2357685731
C     -2.6208457254     -1.9906490778     -1.4257413817
C     -3.4088074746     -0.8105571084     -1.5196495271
C     -0.3105822185     -2.6066769016     -2.056637434
C     -1.6748782385     -2.2425894873     -2.4448683058
C     1.7986192594     -1.4172522155     -2.5883807985
C     2.1132979542     -0.0230335347     -2.8754497419
C     0.5975356979     -1.9830269453     -3.0270666755
C     0.6400191367     1.9430287832     -2.86489634
C     1.1662092852     0.757978708     -3.5460489631
C     -1.6287142169     2.194445121     -1.7677102484
C     -2.8042485111     1.4187703427     -1.589916062
C     -3.0537139115     0.2349943562     -2.4180428902
C     -0.8275983952     1.8986530531     -2.9503868295
C     -1.6216724995     -1.3873083549     -3.5679406612
C     -0.21304439     -1.2339197864     -3.9458176699
C     0.0487512233     0.1150758143     -4.167054346
C     -2.2106829606     -0.075808497     -3.5039591524
C     -1.174975334     0.8603737695     -3.8320239111


