58

 C     1.426761431     -0.0053946978     4.2102824548
C     0.6230032659     -1.1905345055     3.8954441353
C     1.4078974129     -2.1154417032     3.2256632118
C     2.6094562604     -0.1079264333     3.4019233832
C     2.680826266     -1.4229795511     2.8789603429
C     2.6547308531     1.0038591567     2.4679276281
C     0.6935326453     1.078358545     3.7046907242
C     1.4685803361     1.8071751239     2.7302677068
C     -0.6587398742     -0.7878253048     3.3250847764
C     -0.6288610279     0.6553717367     3.2860289286
C     -1.2428497927     -1.4937597689     2.2401172308
C     0.9168467679     -2.7293544406     2.0440189099
C     -0.4540069628     -2.5693606245     1.6279367076
C     2.9300470703     -1.6595921171     1.5214250082
C     1.9527162795     -2.6482114474     1.0434790072
C     3.0644089937     0.8072964481     1.1185840872
C     3.2879617171     -0.5750435285     0.6273905799
C     2.5753173651     1.7631169991     0.1671508583
C     0.7983521373     2.5128146587     1.7114794661
C     1.4862839774     2.6397564535     0.4752412075
C     -1.3413162564     1.3689224132     2.3110990566
C     -0.6709691641     2.4855897743     1.6516504656
C     -2.2482881672     -0.7897424106     1.4362522416
C     -2.3897679836     0.6428865711     1.6005322337
C     -2.7045863042     -1.38341517     0.1734671074
C     -0.7235636981     -2.9010056866     0.2818886057
C     -1.893989233     -2.3969586462     -0.4080498392
C     1.6691611173     -2.8063549591     -0.3233821591
C     0.3163243085     -3.1124970591     -0.6800104197
C     3.1424585607     -0.8318985839     -0.7481571796
C     2.4495112223     -2.0262908305     -1.2462893593
C     2.511055499     1.4838707146     -1.2507987607
C     2.8974320222     0.2301602119     -1.7189679171
C     0.7885012182     2.9426249424     -0.7645941215
C     1.3708093738     2.1648136584     -1.8344846956
C     -1.2915022253     3.0265856294     0.5094139125
C     -0.5539113444     3.2121127968     -0.7511380624
C     -3.1388033646     1.393615486     0.6370829455
C     -2.5859845421     2.6258110747     0.1512917313
C     -3.5017006108     -0.5947957855     -0.7502332986
C     -3.781556368     0.7596535222     -0.4555216743
C     -3.2514436337     -0.6795745765     -2.1718739073
C     -1.6128263976     -2.4168426466     -1.8252218456
C     -0.2236276071     -2.7493842964     -1.9766964692
C     -2.2000254923     -1.4452977617     -2.6597122085
C     1.9105242225     -1.7171976169     -2.5086723619
C     2.1644237653     -0.3119429482     -2.8045351182
C     0.5752613538     -2.0215713387     -2.8766669096
C     0.536703425     1.5617108181     -2.8206905604
C     -1.3185614217     -0.5423225794     -3.4417246559
C     0.9894816464     0.2744908113     -3.3059009981
C     0.0199750466     -0.81044051     -3.5088206757
C     -1.4148610976     2.8014329116     -1.8590167247
C     -2.7184993212     2.6406156112     -1.3059775995
C     -3.5383892525     1.5682778192     -1.6707313501
C     -3.1016780746     0.6973753494     -2.6715410053
C     -0.9091965694     1.8676982395     -2.8418555023
C     -1.8188397737     0.8269600616     -3.2745092552


