58

 C     1.4064881516     -0.0257557419     4.3718389669
C     0.6191921609     -1.2470120712     4.3563567064
C     1.3952516717     -2.2535112711     3.7344171415
C     2.5291270364     -0.2458930967     3.4610652439
C     2.6223076252     -1.5924974237     3.1505646311
C     2.4715504748     0.7420992874     2.3866172099
C     0.62898513     0.9776412978     3.7995590463
C     1.2963999153     1.5431456481     2.6326658717
C     -0.6879378784     -0.9571712811     3.814870821
C     -0.7157284096     0.4777785096     3.5726796936
C     -1.2773806867     -1.8064027185     2.7984812128
C     0.8492703468     -3.040514491     2.723846801
C     -0.4856904673     -2.8655574351     2.233896339
C     2.7190091858     -1.9900776014     1.7803722244
C     1.7464835522     -3.0173270277     1.5627059281
C     2.7482001863     0.3961868601     1.0503978431
C     2.8978471861     -1.0287511015     0.7310769292
C     2.2580405926     1.3206482427     0.0154242836
C     0.5523977151     2.143596823     1.5923226683
C     1.1427162208     2.2323304201     0.2719261934
C     -1.5020248618     1.0643474825     2.5743240003
C     -0.9034824562     2.1249858539     1.7247787302
C     -2.2098262301     -1.1928702684     1.9171645511
C     -2.4600221771     0.2186355459     1.9429294382
C     -2.3578093544     -1.5713660887     0.5249472007
C     -0.4225952417     -2.9746664274     0.7797950359
C     0.9751198601     -3.0575278758     0.398421624
C     -1.3445464214     -2.3472385703     -0.0997925297
C     2.4890412431     -1.4202080343     -0.5884195238
C     1.4069505799     -2.3808145953     -0.7641451195
C     2.4993248468     0.9692732311     -1.3111677987
C     2.6699101901     -0.4609735883     -1.6146700737
C     1.8692926401     1.605086723     -2.4467700725
C     0.3817645671     2.7800913981     -0.8446184201
C     0.7714605681     2.5149716021     -2.255993769
C     -1.6251764033     2.5844934139     0.640117011
C     -0.9897236264     3.0865110494     -0.5617673012
C     -3.0743720865     0.6029013879     0.7094113152
C     -3.0040914872     -0.5121859253     -0.2039250473
C     -2.8555813398     1.8842725753     0.2128706609
C     -2.8239923528     -0.3241977547     -1.5999584285
C     -0.9630333368     -2.0309190811     -1.4899258452
C     0.45295354     -2.1653766712     -1.8319645832
C     -1.8090615114     -1.1535803856     -2.2885630802
C     2.137984019     -0.6782161981     -2.8708849995
C     1.8257793762     0.6122864404     -3.4834038042
C     0.9581312661     -1.5124849361     -2.9945909726
C     -1.2782075743     -0.6529824391     -3.5447488728
C     0.6795677318     0.458160889     -4.2594693438
C     0.0729434799     -0.8627383181     -3.8750018437
C     -0.2541548258     2.5142212707     -3.2900212646
C     -0.3083535128     1.4199565185     -4.2230930777
C     -1.5965837514     0.7057421725     -3.9906664741
C     -1.9653310649     3.0265614759     -1.6161414841
C     -3.0254102081     2.0955636427     -1.1548229721
C     -3.0855673849     1.0258393917     -2.0847915812
C     -1.6287370209     2.7268724818     -2.9037212455
C     -2.4190693584     1.5146167937     -3.272805784


