58

 C     1.3563766646     -0.1579663652     3.4917051759
C     2.4712894214     -0.3875991299     2.6532007585
C     2.3693699321     -1.7810260386     2.1904314433
C     0.457900652     -1.3210027769     3.4393368556
C     1.0601987931     -2.2946351763     2.6099817023
C     -0.8642864031     -0.8829134297     3.262131683
C     0.5804143546     1.0118008723     3.4312576866
C     -0.8326471675     0.5872858779     3.3860719461
C     1.0038934691     2.0523163866     2.5801711128
C     2.8875062966     0.6534635579     1.7374316857
C     2.1334993791     1.8677781073     1.723090239
C     3.4801835202     0.2388541402     0.4919943019
C     2.8553793718     -2.1186421664     0.9430009642
C     3.5621597928     -1.1286120577     0.18600906
C     2.0175499272     -2.8565389488     -0.0174663373
C     0.2445679929     -2.9602945956     1.6902295766
C     0.7446795293     -3.2412082256     0.3474368437
C     -1.7181351259     -1.5116987304     2.28661955
C     -1.1469625804     -2.6089957626     1.569933269
C     -2.7599102055     -0.6956844212     1.6217925908
C     -1.757858193     1.3527664864     2.736545788
C     -2.8120551499     0.7233316649     1.9222615745
C     0.0186156993     2.8530927415     1.8749840248
C     -1.3324450673     2.5758708908     2.038004013
C     1.8346633969     2.5580294347     0.4618393757
C     0.5291402261     3.1408127697     0.5498592428
C     3.2067622985     0.9563474684     -0.7697732608
C     2.3503999081     2.0988244071     -0.7891534385
C     3.2474880221     -1.3045216328     -1.2192006109
C     2.230326146     -2.2680131208     -1.3426307688
C     3.1309957868     -0.0259157315     -1.8241726843
C     1.1225460736     -2.0703390377     -2.2689367141
C     -0.365156452     -3.1481708547     -0.5905917799
C     -1.5437534125     -2.8768774483     0.1986542442
C     -0.2024054998     -2.5944336475     -1.8926292588
C     -3.2374404094     -1.0836667318     0.3440505147
C     -2.6289063552     -2.2122535665     -0.3615488217
C     -3.595614618     -0.0948440641     -0.6811256135
C     -3.1821692233     1.6480569408     0.9328911561
C     -2.2239333757     2.7488594983     0.9358251364
C     -3.4301776753     1.2754169282     -0.4110388495
C     -0.356733126     3.1724705756     -0.5979032047
C     -1.776813524     2.960125179     -0.3680135359
C     -2.5700025626     2.079791291     -1.2579181898
C     1.5325702229     2.3178537741     -1.9625304077
C     0.1642969019     2.7776717647     -1.8420175027
C     2.1814729324     0.1193304495     -2.8521973161
C     1.1949236942     -0.9300287619     -3.1079430728
C     1.5487748527     1.3707094944     -3.0158431345
C     -1.9884676823     1.5373824511     -2.427760918
C     -0.6635355813     2.0071193483     -2.7874963441
C     -0.028983181     -0.2514693328     -3.564766903
C     0.19954597     1.170370981     -3.4982462859
C     -1.3731734051     -1.9830345168     -2.4731165215
C     -2.5735801001     -1.9045982455     -1.7444451961
C     -3.1590032414     -0.5839959256     -1.9341004269
C     -1.2719345761     -0.7484713904     -3.2498217316
C     -2.3214072945     0.1717183419     -2.7843526759


