58

 C     1.2985131929     0.0912048388     4.3901668059
C     0.5025168434     -1.1424760585     4.2732055343
C     1.2946899923     -2.1026928469     3.6309222227
C     2.5383194861     -0.0815432599     3.7331370991
C     2.5632930848     -1.44049196     3.2745816146
C     2.6404614604     0.9748001156     2.7350825399
C     0.567883028     1.1208123739     3.7464848786
C     1.3755417286     1.7298138632     2.7161476459
C     -0.7787855247     -0.7997165646     3.732606642
C     -0.7409210006     0.658113551     3.4120292917
C     -1.3461562994     -1.6565225358     2.7888217471
C     0.8111665286     -2.7711247612     2.4519359272
C     -0.542409969     -2.6667973186     2.1163399563
C     2.8533370547     -1.7575636734     1.9281857849
C     1.7783169945     -2.6061193365     1.3836800512
C     3.1840410279     0.674124045     1.506959231
C     3.3710565146     -0.7424614953     1.096481626
C     2.7789779873     1.3988255852     0.3351584739
C     0.7836102908     2.1789801794     1.5090835128
C     1.5845292748     2.1725213041     0.2856493491
C     -1.3793127088     1.1554922688     2.273620324
C     -0.6728632514     2.0691975227     1.3520145973
C     -2.2563515602     -1.1204541697     1.8209683054
C     -2.4054513268     0.2979293081     1.6842902326
C     -0.9625344359     -2.6709660915     0.7328725635
C     -2.1841545986     -1.887063098     0.6205369423
C     1.3835932798     -2.5162362173     0.0251839187
C     -0.0469669462     -2.6261540535     -0.3359492777
C     3.1664562981     -0.8117433115     -0.2879502761
C     3.1023167085     0.56587284     -0.7907404933
C     2.2532920741     -1.7666978943     -0.8780751551
C     2.5935578846     0.8366942689     -2.0185978109
C     0.9609663464     2.4140822957     -1.0191551041
C     1.5967119852     1.8901295588     -2.1743264248
C     -1.2943107248     2.4351030572     0.1096719587
C     -0.4839093913     2.7253098862     -1.1002090941
C     -3.0396510111     0.7352543358     0.5445986438
C     -2.650634096     1.9852118089     -0.1064626104
C     -2.6938681811     -1.4037557151     -0.5990827316
C     -3.4514807606     -0.1837576032     -0.496307017
C     -0.5451206748     -2.1633274234     -1.6573311771
C     -1.9450793265     -1.6614548993     -1.827922383
C     1.7911224278     -1.4865856227     -2.178985813
C     2.179042418     -0.2738544497     -2.8382844426
C     0.4151705752     -1.766891087     -2.6024180809
C     0.8289251349     1.555668333     -3.3564215298
C     1.1343386392     0.1638361419     -3.6680570892
C     0.075846003     -0.8120453599     -3.6523389772
C     -1.1175817885     2.7111972392     -2.3767548403
C     -0.4647444141     1.9945478212     -3.4895687514
C     -3.2332254394     1.9851128776     -1.3781883861
C     -3.7282432475     0.5851202335     -1.6379938787
C     -2.5325648689     2.4173438797     -2.5062816109
C     -2.2848445874     -0.8788381708     -2.9734741715
C     -1.2203703238     -0.370602676     -3.8334562639
C     -1.4469606232     1.0638679378     -4.0325618869
C     -3.2676792843     0.1924720772     -2.8808635373
C     -2.6914179098     1.3892981251     -3.5126585852


