58

 C     1.5452216999     0.0744093686     4.0556983192
C     0.7154214754     -1.131189216     3.8957124941
C     1.3206552033     -1.9744185098     2.923066653
C     2.6079547749     0.0168970194     3.1773604889
C     2.6009034671     -1.3200253989     2.5985664817
C     2.4798306561     1.1517634584     2.2481643186
C     0.7184660474     1.2143544879     3.7700792281
C     1.2649814419     1.8732947923     2.6141649326
C     -0.6313132172     -0.7174213563     3.7708682874
C     -0.6309581916     0.7722739458     3.7300542473
C     -1.4415198524     -1.3865144091     2.8440531228
C     0.5392653885     -2.5279113466     1.8379928389
C     -0.861044345     -2.2974955989     1.8785409086
C     1.1438195921     -2.7607733719     0.5134706929
C     3.1018401186     -1.465739827     1.3555329319
C     2.5298264328     -2.4196396391     0.4029073553
C     2.8396657377     1.0072044552     0.9084255153
C     3.4814563128     -0.2696128862     0.5658512419
C     2.0908296406     1.7032953143     -0.1577723554
C     0.4152639355     2.3859635168     1.5940331687
C     0.8525417041     2.3887073953     0.1898648172
C     -1.50010959     1.4189916743     2.8656933841
C     -0.9976710303     2.3208467016     1.8588466441
C     -2.5315296455     -0.6941457719     2.1957263854
C     -2.6116003489     0.702407113     2.2576021595
C     -1.6530411809     -2.2350083813     0.6631555639
C     -2.766198096     -1.3551022389     0.9188899899
C     0.3218091671     -2.7168867508     -0.7176615968
C     -1.1012830312     -2.3645412164     -0.6389572512
C     0.9684024826     -2.4713531567     -1.9697401638
C     3.0905338676     -2.0833942972     -0.8399545614
C     3.602705309     -0.6774898463     -0.7396720026
C     2.3616843399     -2.1653193678     -1.9956272827
C     2.3209921449     1.2848748995     -1.5413427495
C     3.0781690306     0.0692998833     -1.8281445172
C     2.5170301821     -0.8945340751     -2.7275822516
C     1.3745603877     1.657527746     -2.5164999171
C     -0.135981705     2.7094378144     -0.8504162969
C     0.2311112772     2.4641462524     -2.200283795
C     -1.96219685     2.3850509602     0.795274977
C     -3.0083508818     1.4261466741     1.0842734649
C     -1.5894098671     2.7122500698     -0.5345901576
C     -3.3788858481     -0.6954348505     -0.1197406489
C     -3.6212477164     0.752861079     0.0151364323
C     -1.8001107651     -1.7010019976     -1.7661609259
C     -2.9990232582     -0.9775588902     -1.4860056876
C     0.3404311943     -1.624977753     -2.9801177448
C     1.3454478356     -0.6518407198     -3.4239354622
C     0.9549385852     0.6984527491     -3.5698594102
C     -1.0236422643     -1.2755339576     -2.9574610265
C     -0.7822758297     2.1638029431     -3.1998212688
C     -0.3581444754     0.9432252607     -3.9042875389
C     -1.3800634834     -0.0530653201     -3.6726427523
C     -2.5483573207     2.3376215396     -1.5512428149
C     -3.5022959896     1.31162412     -1.2511552138
C     -3.2996791236     0.220446212     -2.2304839421
C     -2.1036967715     2.0643286303     -2.8872536664
C     -2.5361287134     0.6764240747     -3.2705940433


