58

 C     1.335601806     -0.1821383676     4.866047806
C     0.4908336526     -1.2808398615     4.8712925141
C     1.1303435938     -2.4102880553     4.2253662529
C     2.5338848703     -0.5278287494     4.0531262114
C     2.3622487001     -1.8608130381     3.6066935707
C     2.6782654275     0.4838219465     3.0788299703
C     0.6740512256     0.9235944248     4.2116948871
C     1.5144214056     1.4075523324     3.2071012931
C     -0.739775097     -0.90308022     4.1498787051
C     -0.6719120323     0.4920468928     3.7791902097
C     0.3095542293     -2.7012317775     3.129515164
C     -0.9101815751     -1.8678336698     3.1232429103
C     2.3479157169     -2.1175537054     2.1813093499
C     1.0620140957     -2.7292078273     1.88100696
C     3.0697384634     0.1739402615     1.7498340115
C     2.8323566106     -1.1726040446     1.2420133285
C     2.9306300521     1.2481677363     0.8220193188
C     0.9693265305     2.0568680047     2.0332293348
C     1.8682285976     2.2496398773     0.9728321562
C     -1.1388171204     0.886585767     2.5078551006
C     -0.4289387056     1.9051266768     1.71434246
C     -1.4562066516     -1.4937296436     1.8925048616
C     -1.8416105937     -0.10585439     1.6941678645
C     0.4159540918     -2.5286214891     0.659052315
C     -0.9899191205     -2.1369511718     0.6776608436
C     2.4027915561     -1.3129665324     -0.1658027238
C     1.1774053934     -2.0399696148     -0.4795297196
C     3.1007468007     1.0208961745     -0.5367246616
C     2.7699927222     -0.283910425     -1.0687961819
C     1.4176491514     2.6016128702     -0.3430364249
C     2.3172332037     1.9777517039     -1.2899071698
C     -0.8815871103     2.2036941845     0.3797957321
C     0.0366884093     2.6631271813     -0.6566503329
C     -2.391959011     0.2652092944     0.4625124022
C     -2.11419238     1.5887105336     -0.0865052848
C     -1.63923237     -1.8206605196     -0.5206289892
C     -2.6578824661     -0.7832630958     -0.5054717528
C     0.4958394609     -1.868098995     -1.7368984505
C     -0.9649084601     -2.0509181309     -1.7986006334
C     2.0548196419     -0.0783800557     -2.2954588458
C     1.779707597     1.3588269308     -2.4100745052
C     1.033844698     -0.9481874789     -2.7085836955
C     -0.3469381549     2.5481895549     -2.0799538184
C     0.5585581178     1.8341851334     -2.9730868797
C     -2.586911157     1.8852334254     -1.3669001258
C     -1.7274612468     2.4609507458     -2.3904908427
C     -3.3108953243     -0.4683733541     -1.7001389243
C     -3.4653140292     0.9546362898     -2.0655746248
C     -1.6854469094     -1.796755419     -2.9844240397
C     -2.9767344674     -1.1538675203     -2.896884643
C     0.1929174379     -0.4626037905     -3.782717488
C     0.0091396977     1.0035557455     -3.9848677379
C     -1.0046391421     -1.1065611285     -4.1002383332
C     -2.198316768     1.9515411566     -3.6619604826
C     -3.4236182785     1.1410450736     -3.4522046033
C     -3.1111148006     -0.1693875457     -3.9878824568
C     -1.3010959189     1.2101304944     -4.468750013
C     -1.9070940465     -0.1341608449     -4.6733711487


