58

 C     1.5478140435     -0.2470022835     4.3931630976
C     0.761903844     -1.433553961     4.4204098793
C     1.3013306239     -2.3391731642     3.5177699335
C     2.5882544841     -0.3910791103     3.3790005929
C     2.4413581679     -1.672248754     2.7957459179
C     2.5233987846     0.7396886138     2.4987229338
C     0.7286423504     0.8161182745     3.9599074187
C     1.4150303579     1.5768838178     2.9506413486
C     -0.6034271231     -1.0790209348     3.9163701817
C     -0.6207715348     0.3348137638     3.663542521
C     0.2107188804     -2.8388919658     2.7034793982
C     -0.9635570759     -1.9413024346     2.8757991518
C     0.4891082004     -3.2688426186     1.4576699999
C     2.5700734957     -1.8595949642     1.3850920534
C     1.8136006701     -2.9579821464     0.8447229621
C     2.7332937079     0.616441786     1.0895481851
C     2.7953133582     -0.7078584814     0.4791857031
C     2.2667084583     1.7193482267     0.3067137967
C     0.6714911623     2.3312114036     2.0477611441
C     1.3001878326     2.6484217047     0.8170432852
C     -1.3014707218     0.8433810443     2.5418086156
C     -0.7893046561     2.0881553     1.9663465434
C     -1.6851436832     -1.4721512967     1.7071981281
C     -2.0045950774     -0.0662016967     1.6355692977
C     -0.5097108884     -3.1931859962     0.3948349912
C     -1.5775865985     -2.2114828486     0.4574799353
C     1.6211648352     -3.0617569169     -0.5104031944
C     0.2004089531     -3.3455020772     -0.7893844788
C     2.5147302404     -0.8125028647     -0.9564370428
C     2.0106958646     -2.061800346     -1.4443960928
C     2.050840951     1.6456288549     -1.1076409287
C     2.1799572701     0.3896822402     -1.7660624484
C     0.5766691925     3.2106664018     -0.288502397
C     1.0824098941     2.6538488536     -1.514026012
C     -1.4771468809     2.6304692918     0.903603782
C     -0.8054855165     3.4113109123     -0.1625529045
C     -2.6004841149     0.4613721891     0.4295606641
C     -2.541253231     1.8963790235     0.2570245036
C     -2.0567595163     -1.6460481597     -0.7951350275
C     -2.7446915823     -0.3592725509     -0.7627391728
C     -0.1688475398     -2.7246006747     -1.9875102055
C     1.0400626123     -2.0875479015     -2.5158023132
C     -1.4197585202     -2.0517708993     -2.0644837916
C     1.4465963939     0.2889062475     -2.9856034915
C     0.8813267682     -1.0029023999     -3.3578709487
C     0.2598459069     2.5070130406     -2.6755556963
C     0.544141331     1.3371285005     -3.4728361461
C     -1.6073587093     3.3600552815     -1.3067847671
C     -2.7703052817     2.5057015125     -1.0024356388
C     -1.119514559     2.9847589591     -2.5995689744
C     -3.0658844821     0.309168982     -2.03457684
C     -3.0931759335     1.7707533797     -2.1178431272
C     -2.1790045651     2.1804491411     -3.1848744261
C     -1.5585075806     -1.2188299694     -3.2217911974
C     -0.3934107248     -0.7707989337     -3.9062357429
C     -0.5396065665     0.6750559345     -4.12665532
C     -2.495981957     -0.1434529684     -3.2292033363
C     -1.8743340048     1.0335466279     -3.9088043129


