58

 C     1.5419111468     0.04248398     4.0189584549
C     0.7351463533     -1.1183277314     3.8968955738
C     1.3274347914     -2.00806578     2.9318039633
C     2.6121937376     -0.0547490147     3.0890624441
C     2.4940407576     -1.3095362917     2.3972360064
C     2.5877495454     1.1248279831     2.2590119694
C     0.7107577111     1.1321567025     3.572963057
C     1.3518294782     1.8591275533     2.5274898135
C     -0.6531511555     -0.7357213411     3.7322078458
C     -0.6593432751     0.7143677438     3.4432115334
C     -1.4919823784     -1.5632868372     3.0321305636
C     0.4841126954     -2.7882799642     2.0839154601
C     -0.9505724995     -2.7163759107     2.2983547578
C     0.9278884178     -3.0182696315     0.7399346843
C     2.8264559332     -1.4073331354     0.9962420304
C     2.0754192775     -2.3292969401     0.2101409586
C     3.0313307391     1.0616147305     0.9557492452
C     3.2766858192     -0.2189759567     0.3185528518
C     2.472889748     1.9374087071     -0.037120271
C     0.5876153474     2.4259492237     1.4748851247
C     1.2421191131     2.6209621712     0.1683520654
C     -1.4671189752     1.264491687     2.4359491476
C     -0.862454569     2.2727457106     1.5327164025
C     -2.5688762167     -0.9787727479     2.2443829072
C     -2.5900084107     0.4243149136     1.940513675
C     -1.8217646213     -2.9050765107     1.2108180352
C     -2.867338159     -1.9059948254     1.2166346569
C     -0.0088781683     -3.1455647881     -0.3555978533
C     -1.3772656778     -3.0476722393     -0.139964789
C     1.8722154821     -2.1106652761     -1.2196685198
C     0.5537244945     -2.5615462614     -1.5463734361
C     3.1246392507     -0.0358388728     -1.0906984949
C     2.7889159209     1.3551753166     -1.3249641008
C     2.4568912205     -1.0138241997     -1.9027149578
C     2.1450585311     1.7718338759     -2.4753296413
C     0.4564095846     2.9689552393     -1.0230496218
C     0.9808213248     2.6727465567     -2.3436594067
C     -1.5887713441     2.6417235014     0.37959307
C     -0.9485634236     3.0346812196     -0.8788395245
C     -3.216538926     0.7944023206     0.7284133842
C     -2.8218458323     1.9951804849     0.0742689354
C     -3.1353984323     -1.4998592592     -0.1193205951
C     -2.1946181647     -2.189001136     -1.009888928
C     -3.4508962673     -0.1714555723     -0.3393771869
C     -0.2525319236     -1.8610423942     -2.4928711113
C     -1.664353792     -1.5579627706     -2.1456459774
C     1.7903552389     -0.5646926999     -3.0907358593
C     1.8855208746     0.8230997641     -3.515923544
C     0.4434185595     -0.9919201415     -3.3683511382
C     0.1106523171     2.3107407691     -3.3969754806
C     0.6778937581     1.2045039775     -4.1499595929
C     -0.2414200714     0.1414755702     -3.9772456601
C     -1.8079815864     2.5497561268     -1.9512549603
C     -2.8776779155     1.8236155315     -1.3394725439
C     -3.0796386642     0.4426347643     -1.5993642936
C     -2.2238706476     -0.2345097595     -2.5406088606
C     -1.2707109774     2.0340847174     -3.1161373577
C     -1.4785251147     0.598557187     -3.4192748903


