58

 C     1.5869501992     -0.2407097137     4.2793867189
C     0.8051594382     -1.4365279562     4.1030870988
C     1.6117220848     -2.4322300542     3.5194469707
C     2.747135102     -0.3951636518     3.3847950042
C     2.8234263639     -1.7238693082     2.9823039938
C     2.6874003796     0.636003839     2.3616407501
C     0.8309963298     0.7955742974     3.7269735805
C     1.5698551619     1.4882130536     2.7029024603
C     -0.4750100749     -1.0932324021     3.4623018337
C     -0.5071986111     0.3432701768     3.351632284
C     -0.9912101813     -1.8462727696     2.3657527024
C     1.096378636     -3.1895281401     2.4731938131
C     -0.2054459339     -2.9766952524     1.9073769886
C     2.9743328838     -2.06903628     1.5983524607
C     2.0377280204     -3.1205011997     1.356894034
C     2.927111131     0.369269671     0.9689624739
C     3.098438625     -1.0349726046     0.5790484663
C     2.3994939679     1.3323928164     0.0073265121
C     0.8849709997     2.2237881382     1.7456320839
C     1.5519156001     2.4273866102     0.4650959135
C     -1.1915808763     1.0074524721     2.3335956245
C     -0.5723971968     2.2010184487     1.764202991
C     -1.8590609721     -1.174750748     1.3980347386
C     -2.0819351213     0.2437363175     1.4662300571
C     -2.0993845882     -1.8221897496     0.0987613956
C     -0.1141190733     -3.2022697619     0.4779025695
C     1.3282587685     -3.2500977096     0.1497978459
C     -1.0274401026     -2.6925634705     -0.4278922447
C     2.6597588771     -1.388575598     -0.7257242061
C     1.7599017675     -2.5023816232     -0.925441319
C     2.2481397416     0.9549640427     -1.4091972505
C     2.2817318504     -0.4148381731     -1.701096291
C     1.4799259747     1.7859410929     -2.3175773952
C     0.8759916088     3.237430673     -0.4670348468
C     0.9937838712     3.0198067358     -1.8888130148
C     -1.2271847044     2.8601405191     0.7204901271
C     -0.4896697057     3.6115978077     -0.2219727681
C     -2.7812799552     0.9488308564     0.3811543014
C     -2.4140976714     2.2949030443     0.0716952846
C     -2.9467213088     -1.2119617355     -0.8185507659
C     -3.3724164752     0.1813740596     -0.6587053045
C     -2.767834717     -1.4235725862     -2.243400981
C     -0.5762393552     -2.4422250068     -1.8183344818
C     0.8293192548     -2.172976745     -1.9825566322
C     1.2514892105     -0.992303009     -2.6106216819
C     -1.4310296871     -1.789461071     -2.6999177221
C     0.5429598323     1.2218008619     -3.3162282275
C     0.3523054568     -0.1872818458     -3.3681257303
C     -0.9748135368     -0.708619936     -3.5614557591
C     -0.31426579     3.2144794315     -2.4974186197
C     -1.2067960098     3.5304351451     -1.4793042202
C     -2.4289042513     2.7693917899     -1.2909608582
C     -0.5899523453     2.1051544131     -3.3827378523
C     -3.531259576     0.7238201074     -1.977887545
C     -3.2067128723     -0.3035728409     -2.944482591
C     -2.0861538115     0.198115249     -3.7063097739
C     -2.861194064     1.9298920813     -2.3292121646
C     -1.9052725588     1.582197211     -3.4330108011


