58

 C     1.5496496909     -0.2933390107     4.4412134674
C     0.6906120605     -1.3862026727     4.3664686287
C     1.2012478181     -2.3910293645     3.4252441941
C     2.6107669546     -0.5204205207     3.4928744274
C     2.4410940405     -1.8667469827     2.8934361115
C     2.6776297508     0.5875891105     2.6297850058
C     0.8052195374     0.8873652512     4.0216769203
C     1.5159783959     1.4681582959     2.9462435945
C     -0.6291718493     -0.9798789266     3.9903541581
C     -0.5296443362     0.4590160764     3.6974488339
C     0.146827944     -2.6999266167     2.5460569576
C     -1.0007137608     -1.8106342855     2.9076138603
C     0.3845315628     -2.9387604625     1.1558706882
C     2.6621594221     -1.9974213739     1.5324272829
C     1.715580948     -2.7124423688     0.6934367386
C     3.0653805942     0.4340393359     1.2561088562
C     3.165859074     -0.8849793824     0.7151158755
C     2.6758987341     1.4582206775     0.3618781003
C     0.834568767     2.1498610244     1.8975707806
C     1.5632267678     2.3418417652     0.6977840825
C     -1.2245729287     0.9891332223     2.5795740434
C     -0.6119939299     2.0133102263     1.7528337064
C     -1.8662288286     -1.3386752335     1.9063384244
C     -2.1681549346     0.0996438592     1.9162258224
C     -0.717168247     -2.7679987733     0.2071662959
C     -1.9254004684     -2.0366745905     0.6349068304
C     -0.4191180716     -2.7121138945     -1.1664764216
C     1.9414421575     -2.2997845335     -0.6610931516
C     2.7902900479     -1.1149055742     -0.6426684436
C     0.9379442935     -2.3928655658     -1.5979470411
C     2.5801741053     1.2454620406     -1.0432406844
C     2.5507181861     -0.0696567263     -1.5896059252
C     0.9630714665     2.8340902271     -0.5014312281
C     1.7158009676     2.2765243923     -1.5999142985
C     -1.2531590556     2.438950836     0.5067927126
C     -0.4520635911     2.9854711951     -0.6144357921
C     -2.8916672849     0.6214911664     0.8528327424
C     -2.4857020364     1.8460241995     0.1743326484
C     -2.7981405688     -1.5308031273     -0.3547206885
C     -3.3835252899     -0.2439067919     -0.1570444504
C     -1.3064231584     -2.1514336792     -2.1640974941
C     -2.5234998074     -1.6139910582     -1.7809453891
C     0.8674413552     -1.509555104     -2.7347142242
C     1.6730254567     -0.3187878046     -2.7540541471
C     -0.5010794885     -1.4866205638     -3.1904293075
C     1.1468998413     2.1244109072     -2.8379735774
C     1.1412637524     0.7935552937     -3.4759560439
C     -0.9923950057     3.0150195713     -1.938720168
C     -0.1409337541     2.7295347967     -3.0575432657
C     -2.984985724     1.7733623002     -1.2101610142
C     -3.5166100306     0.452092478     -1.3982524911
C     -3.0190461915     -0.3909416402     -2.4413069055
C     -2.2771447928     2.3681743313     -2.2445022349
C     -1.009446416     -0.3901804399     -3.8916997711
C     -0.1103645926     0.6981674141     -4.1586436025
C     -0.8468823057     1.9310220664     -4.0068732471
C     -2.3012957987     0.1935132056     -3.4917318991
C     -2.127771415     1.6356318321     -3.4934289034


