58

 C     1.1245453797     -0.0471967068     4.1753810473
C     2.2560005735     -0.300699663     3.435101751
C     2.1724945835     -1.6543613752     2.8577983731
C     0.2493578614     -1.2428856872     4.0163718638
C     0.8589246596     -2.1619641763     3.0739612362
C     -1.0145270971     -0.7894931309     3.7703568414
C     0.3258999134     1.1359802483     3.9086359089
C     -1.0327615663     0.6978348361     3.7913705776
C     0.7760118719     2.0571604297     2.9429485144
C     2.7111689271     0.5866594258     2.3841268913
C     2.0109358638     1.7792438301     2.1795008448
C     2.7308598663     -1.6058265867     1.5725059397
C     3.0532267352     -0.209755496     1.225735048
C     2.1691904172     -2.4195305603     0.5975076567
C     0.0973475278     -2.6618782834     1.9453684346
C     0.8523371249     -2.9687623117     0.7831578085
C     -1.8012493579     -1.2406120301     2.6488690336
C     -1.2847801822     -2.1856686466     1.7141850571
C     -1.8808927372     1.1328366276     2.7770276308
C     -2.496159674     -0.0709310859     2.1804611252
C     -0.1543439131     2.6570097378     2.0238755095
C     -1.5025518735     2.2053512926     1.8880596016
C     1.860598119     2.2828936837     0.84753365
C     0.5877518417     2.998772081     0.8170873022
C     2.8735576268     0.2483599216     -0.1008306659
C     2.3088047861     1.5868952083     -0.3056219023
C     2.3302880331     -2.0843095069     -0.7869903227
C     2.6999404921     -0.761691457     -1.1605243857
C     0.2662828707     -3.0979640844     -0.5396648141
C     1.2915099081     -2.7785661865     -1.515241982
C     -1.829972221     -2.1567008686     0.344208188
C     -1.076653054     -2.7270251394     -0.7805827026
C     -2.9751390947     -0.0273611412     0.9011623073
C     -2.769105781     -1.1393795112     0.0206615636
C     -2.1527298242     2.2974328962     0.5720223018
C     -2.9712198386     1.2134265363     0.1278481963
C     -0.0461396884     3.2502316255     -0.356997473
C     -1.4895224794     3.0338775519     -0.4701406088
C     1.7012934045     1.9446020738     -1.6045080989
C     0.5909298853     2.8745282787     -1.6189565945
C     2.2887465282     -0.3316658563     -2.4695227687
C     1.7740523483     1.0380919076     -2.6862562996
C     0.9667499118     -2.3793955406     -2.8013402428
C     1.6148660738     -1.205224963     -3.3338379326
C     -1.4022424377     -2.3275088876     -2.1448836441
C     -0.4180549926     -2.2951033828     -3.1480269721
C     -2.9415673436     -0.6172638868     -1.3270587851
C     -3.065468806     0.8384422939     -1.2509126902
C     -2.3248159256     -1.21455074     -2.3996052452
C     -1.7246566361     2.7505698902     -1.8227194207
C     -0.4444537461     2.7301089531     -2.555335163
C     -2.4713986183     1.6290212597     -2.2558285745
C     0.7251265525     0.9522812774     -3.6890933986
C     0.6119687748     -0.4269765973     -4.0640253976
C     -0.6101282658     -1.0821571431     -3.9603670123
C     -1.78275394     -0.396388834     -3.4928265616
C     -0.4633084435     1.6944069888     -3.5140933179
C     -1.7541709141     0.9927806215     -3.3670372072


