58

 C     1.1183748961     -0.0845174513     4.2697790264
C     2.1795945287     -0.2928915987     3.4134682737
C     2.0009374731     -1.5808544879     2.7160072917
C     0.2032241744     -1.2538603118     4.0919167787
C     0.7210846106     -2.090667891     3.0244853773
C     -1.0805011879     -0.79667452     4.0465111629
C     0.3212509199     1.1192367758     4.1931992645
C     -1.0612279952     0.6858092414     4.2173524527
C     0.6905948053     2.0971182714     3.2399506598
C     2.5711195344     0.6724149501     2.4218626446
C     1.8560166347     1.8772843149     2.3801334796
C     2.4387507944     -1.4280386244     1.3843004049
C     2.832784981     -0.0473618166     1.1689473314
C     1.8191131883     -2.1460044974     0.3473573989
C     -0.12044641     -2.48267787     1.9277312911
C     0.5398773161     -2.7702598463     0.6753373443
C     -1.9507824631     -1.122302019     2.921009986
C     -1.4881328869     -1.9570486542     1.855207406
C     -1.9809491235     1.194667828     3.3258185075
C     -2.5942306148     0.0848268915     2.5678260574
C     -0.3254629264     2.6902439407     2.3738365914
C     -1.6439546693     2.2151453574     2.3765565519
C     1.600804097     2.4455986745     1.0808780163
C     0.2640022411     2.9791164057     1.0886428794
C     2.6735341572     0.5286585476     -0.1035843012
C     2.1497203904     1.8964104342     -0.122449286
C     2.0811549153     -1.7142801804     -1.0172571526
C     2.4489696268     -0.3351421054     -1.2721505504
C     1.4293631013     -2.4630481087     -2.0556908557
C     -0.2973145303     -3.0996536791     -0.4116102475
C     0.2226361006     -3.1712584021     -1.7190802843
C     -2.0813699131     -1.732005494     0.5296950428
C     -1.5981997016     -2.5125532424     -0.5241676115
C     -2.7798384994     0.4924158812     1.2286995669
C     -2.2637180178     1.8446465752     1.098386509
C     -2.6448924333     -0.4372851255     0.1697794485
C     -0.4818297041     2.9706740538     -0.1105539681
C     -1.7748673771     2.2561894801     -0.1374982025
C     1.5853861031     2.3594306943     -1.3161966322
C     0.286118725     2.9618849243     -1.2895530151
C     2.1144915727     0.2730455429     -2.5827800959
C     1.7136572998     1.6497086551     -2.589589464
C     1.2395145243     -1.912148897     -3.3373126287
C     1.544164911     -0.5717089064     -3.633357242
C     -0.8091980521     -2.8784259658     -2.6855845632
C     -1.8308837275     -2.2010418507     -1.9340512848
C     -0.1765336608     -2.2069113728     -3.7510950672
C     -2.4969033856     0.0718220248     -1.1877861614
C     -2.1227803966     1.4677958785     -1.3230267852
C     -2.2463440852     -0.8745556813     -2.2956783253
C     -0.3206853246     2.6553993801     -2.5301309989
C     0.6366801323     2.0999995029     -3.4345003952
C     -1.5515661111     1.8945845958     -2.5752822616
C     0.4241997205     -0.0884145275     -4.4471677245
C     -0.6970224363     -1.0573905757     -4.2796509421
C     -1.761066043     -0.3580710879     -3.5665291702
C     -0.0713215828     1.1629697599     -4.2302027359
C     -1.455098216     1.0199561991     -3.6711587422


