58

 C     1.533930817     0.1110959408     4.2144115936
C     0.7495675794     -1.0712840713     3.989075908
C     1.5209539567     -1.9345870626     3.2135283751
C     2.6929789236     0.0642984696     3.3035789436
C     2.7472005605     -1.219456248     2.752696163
C     2.643573115     1.1857469945     2.4168933186
C     0.7671870189     1.2085900198     3.8201466999
C     1.511005618     2.0098983156     2.8748201065
C     -0.5657935428     -0.6675722749     3.4455977914
C     -0.5627517187     0.7692382564     3.4141331543
C     -1.1976940083     -1.3901565153     2.3956808248
C     0.9676629625     -2.6249111401     2.1257168788
C     -0.4468459895     -2.5385799835     1.8429109534
C     2.8284066657     -1.4210114135     1.360484981
C     1.8736287791     -2.4851143097     1.0129529998
C     2.8186848378     1.022450787     1.0033389562
C     2.935067201     -0.331846104     0.4450035899
C     2.2776479561     2.0811289967     0.1375023045
C     0.7924293724     2.7611269855     1.9827287283
C     1.289887885     2.9797856655     0.6495858117
C     -1.2898919304     1.4791749314     2.4254847903
C     -0.6588644959     2.6420869465     1.87621857
C     -2.1658295039     -0.7051556738     1.5266237443
C     -2.241720699     0.747906274     1.593867051
C     -2.6552933191     -1.3916647928     0.3180128005
C     -0.8120195238     -3.060305944     0.6104952525
C     -2.0250607253     -2.6282680204     -0.0813103621
C     1.4668391189     -2.7594989869     -0.2929311835
C     0.1765797421     -3.3970899947     -0.3916578898
C     2.567761498     -0.5961700266     -0.9595152041
C     1.9232522216     -1.8722656583     -1.3623730514
C     2.2378581647     1.855891601     -1.2668312158
C     2.3995289223     0.5100343315     -1.8112925351
C     1.3246687944     2.5678000637     -2.0947852747
C     0.182372765     3.4290787438     -0.1685250798
C     -1.0317982718     3.14664151     0.5924865181
C     0.1983312667     3.2382080188     -1.5430727447
C     -2.795625982     1.4610881574     0.4834695292
C     -2.1518152986     2.6473236244     -0.0519850966
C     -3.2497163165     -0.6429517784     -0.7428247793
C     -3.3537482023     0.7627760019     -0.611953993
C     -2.934007647     -0.9042282381     -2.152710621
C     -1.8983039375     -2.9745024202     -1.4342609213
C     -0.5001490123     -3.41776072     -1.6251929294
C     -2.2296197599     -2.0550791544     -2.4834633375
C     1.1989180029     -1.9296739578     -2.5891658341
C     0.0192800136     -2.7413678294     -2.7089811475
C     -1.0532390888     -1.9323225917     -3.3167282847
C     1.5604333813     0.4398885202     -2.9989663654
C     0.8422301728     1.6753820726     -3.1052302936
C     0.904178313     -0.721647941     -3.3241148971
C     -0.5385011283     -0.6848947923     -3.6722656199
C     -0.9990453846     2.744349723     -2.2430885472
C     -2.1689703874     2.5244036682     -1.5200421132
C     -2.9741356929     1.3929706044     -1.844686283
C     -2.5652681446     0.374074426     -2.7540501723
C     -0.5727928204     1.7414022016     -3.2248378554
C     -1.3135431243     0.5255258322     -3.4506026959


