58

 C     1.3456683054     0.0586951319     4.2294393344
C     0.5420727307     -1.1407543414     3.9671138069
C     1.3498973585     -2.0790636867     3.3364999458
C     2.5861618085     -0.0895816063     3.4785141265
C     2.641946753     -1.3973000401     3.006166993
C     2.6730175514     0.972613534     2.4884698264
C     0.6533929964     1.1089230107     3.6492834035
C     1.492439066     1.7921921765     2.6749595122
C     -0.6972024933     -0.7677688437     3.3339683788
C     -0.6732843395     0.6832457263     3.1981514006
C     -1.2131168611     -1.5077426791     2.2444281346
C     0.9199844327     -2.7577175417     2.1717455805
C     -0.395820576     -2.5778396401     1.6527163742
C     2.9800611054     -1.7232310631     1.6628175965
C     2.0474290022     -2.7587021756     1.2322524358
C     3.1315308234     0.7050952213     1.1571785396
C     3.3565305061     -0.6908252592     0.7276056864
C     2.6831848618     1.6234130637     0.1626295035
C     0.8837267365     2.4804963936     1.6240182474
C     1.6474540085     2.5689448161     0.4229267546
C     -1.3143439241     1.3445409218     2.1527496901
C     -0.5962548352     2.4505990945     1.4924283128
C     -2.2148529477     -0.8323153423     1.4225052016
C     -2.3201895319     0.6099004273     1.3825811663
C     -2.7106532114     -1.5594086935     0.2974163225
C     -0.6051521253     -2.9038084979     0.2378009026
C     -1.8024715109     -2.4885052042     -0.3866291734
C     1.8422573511     -2.9866302246     -0.1137365649
C     0.4938571471     -3.1199605203     -0.6328150599
C     3.197552924     -1.004402944     -0.664033451
C     2.5755986365     -2.2058710689     -1.049559633
C     2.567367898     1.2829069677     -1.2596443493
C     2.7785422538     -0.008871801     -1.6638859352
C     1.009744082     2.9173154088     -0.818299121
C     1.5166910826     2.0642176663     -1.867890942
C     -1.1568080826     2.9794528525     0.3451474024
C     -0.3144851058     3.3398717555     -0.804922174
C     -3.0012057004     1.2816730569     0.2711247239
C     -2.4429032088     2.5284518132     -0.1913226723
C     -3.5048196497     -0.9356821077     -0.6580388208
C     -3.6880441604     0.4685446575     -0.710510997
C     -1.9008055036     -2.2381665579     -1.7969812075
C     -3.0437101669     -1.4088277891     -1.9881597177
C     0.4647422622     -2.5576782387     -1.980657878
C     1.7248958932     -1.9667850526     -2.2025827253
C     1.8235748132     -0.6169480054     -2.5983156178
C     -0.7003551561     -1.9636789907     -2.5334226553
C     0.6169296246     1.5208724779     -2.8305533678
C     0.6733687279     0.0747208343     -3.0911755049
C     -0.579916164     -0.6808597027     -3.253161007
C     -1.0814290271     3.1379647151     -1.962736603
C     -2.4443739913     2.8455302966     -1.5854021596
C     -0.6482601715     2.2055856503     -2.9826858055
C     -3.6158211104     0.8096900904     -2.1266123392
C     -3.0373910828     -0.3591470878     -2.8556860761
C     -1.7919455858     0.067933425     -3.4812571769
C     -2.9388482667     1.9232459791     -2.5377143874
C     -1.7851562324     1.4814375416     -3.3942461808


