58

 C     1.3706139545     0.0024954399     3.7733026725
C     2.6211204756     -0.1315347156     3.1292357582
C     2.6540148546     -1.4099543057     2.5164825837
C     0.5689849037     -1.1925477275     3.443204584
C     1.3463181392     -2.0762243601     2.6733891973
C     -0.6779480235     -0.748896826     2.9718856012
C     0.5808264731     1.1440853289     3.615261675
C     -0.7452886774     0.7111316463     3.1476977317
C     1.1723970937     2.2863125584     2.9948104321
C     2.9941434115     0.8610221905     2.1202910784
C     2.3430577695     2.0701174989     2.1038562898
C     3.1493428821     -1.2495049789     1.196243638
C     3.2250929553     0.1690317275     0.8644776221
C     2.761112838     -2.1505358468     0.2393897559
C     0.7594262441     -2.7694952535     1.5838910652
C     1.6759692441     -3.0995459562     0.5047955409
C     -1.310543227     -1.3863530454     1.8707704751
C     -0.6285551243     -2.5054087382     1.2170253671
C     -2.3269859228     -0.6032117558     1.1664274628
C     -1.5348327678     1.5172873656     2.3144675745
C     -2.3920706691     0.8532628286     1.3050815621
C     0.327179225     3.1893006952     2.3752424384
C     -1.047449017     2.8759107321     2.0765959393
C     2.0337771321     2.7024742236     0.8291602216
C     0.9606652848     3.6056716884     1.1037991674
C     2.6979097728     0.6340951354     -0.3809860534
C     2.0530521679     1.9551304727     -0.404073243
C     2.6639531657     -1.7338143999     -1.1430380746
C     2.4094024721     -0.3538748859     -1.4430099863
C     1.2126468241     -3.5276141151     -0.7255295477
C     1.9363906135     -2.7689540668     -1.7834504409
C     -1.1074663306     -2.9625049876     -0.1082488339
C     -0.1631127089     -3.5380328381     -1.0658234395
C     -2.8976007365     -1.2067673685     0.0135621428
C     -2.2447512127     -2.3465476842     -0.6511278136
C     -3.5326643532     -0.4284511862     -0.968644717
C     -2.8411041307     1.6309098503     0.1542317752
C     -3.3715018075     0.9685383726     -0.9824370455
C     -1.3238610003     3.4667873816     0.8183866589
C     -0.021857586     3.8161176129     0.1848874903
C     -2.1176082438     2.8579908209     -0.136044197
C     1.0176105802     2.2282949434     -1.4184139872
C     0.0109974906     3.1968906185     -1.090443263
C     -1.3735728539     2.9094577832     -1.3979340258
C     1.4131317211     -0.0592857397     -2.4900565494
C     0.6711300618     1.2086161706     -2.4320320809
C     1.0542158747     -2.5036225282     -2.7861487059
C     -0.238671154     -3.140889419     -2.449144919
C     0.7910116732     -1.1574426451     -3.1877507973
C     -2.3961818946     -2.1370008598     -2.0995095461
C     -3.152475328     -0.9770932405     -2.2855158181
C     -1.250184934     -2.3288584823     -2.9298604511
C     -0.6212099549     -1.1283440379     -3.5415335112
C     -2.8727483971     1.2903155753     -2.3338494892
C     -1.6795338439     2.0534239611     -2.4234776614
C     -0.624566577     1.2533381613     -3.0358172635
C     -2.6848521166     0.0966778923     -3.0760237581
C     -1.2962966756     0.0676233184     -3.5379282917


