58

 C     1.537418944     -0.062944803     4.2857228153
C     0.7494974788     -1.2877716986     4.1803691344
C     1.5683572993     -2.2579207679     3.5701896388
C     2.6627951896     -0.2189506371     3.3673924138
C     2.7758189645     -1.545468313     2.9866999205
C     2.5864644291     0.8123852107     2.3364078985
C     0.7731359063     0.985215175     3.7935988541
C     1.4753037332     1.635366972     2.6884145361
C     -0.5196329785     -0.966583791     3.5611516715
C     -0.537575017     0.478096734     3.4302979485
C     -1.0494072212     -1.7376952759     2.455597677
C     1.0534685478     -3.0514344645     2.5676782086
C     -0.2635047578     -2.8666032805     2.0370771713
C     2.8634384717     -1.8960303708     1.6051259647
C     1.9689140892     -2.998958433     1.4071551641
C     2.7912134036     0.5134987177     0.9498240626
C     2.9346644452     -0.8839440435     0.5542172199
C     2.2648450287     1.4809619872     -0.0092627571
C     0.7440991065     2.3579190912     1.7340060297
C     1.3130877371     2.4959750695     0.4188069673
C     -1.2850722636     1.1296752424     2.4496548241
C     -0.7163733897     2.3553407447     1.8656449754
C     -1.9032508806     -1.0733629734     1.4542816334
C     -2.1687691421     0.3403186534     1.60554034
C     -2.0734420537     -1.6399816699     0.1100847013
C     -0.1725198139     -3.1178055215     0.623198371
C     1.2427453152     -3.1477510573     0.2455017279
C     -1.1165350058     -2.6566364212     -0.2927042942
C     2.5011993904     -1.266687538     -0.7753764745
C     1.6581140782     -2.4593893222     -0.9408455688
C     2.2356332647     1.1131346433     -1.382072048
C     2.3442002967     -0.2573813427     -1.7688630309
C     1.3956878007     1.7854619154     -2.3699614584
C     0.520130408     3.1836646916     -0.5633902656
C     0.5588425426     2.8132778051     -1.9831620596
C     -1.4514651941     3.0132799264     0.8881010683
C     -0.7846673042     3.5736433894     -0.2479629352
C     -2.8729481962     1.0416584873     0.5786616455
C     -2.6597913749     2.4103480406     0.3803302606
C     -2.7587234174     -0.9028825935     -0.9676759826
C     -3.1816942255     0.426071858     -0.7126205531
C     -2.4914749     -1.226248518     -2.358499897
C     -0.690874225     -2.7350986106     -1.6761410461
C     0.749299134     -2.51677726     -1.9920963194
C     -1.4398801464     -2.1671991146     -2.6752737906
C     1.5561152732     -0.4549158086     -2.9823784334
C     0.9700707925     0.8179214357     -3.3667452607
C     0.8007613943     -1.6321129094     -3.120846927
C     -0.5311922469     -1.549698472     -3.659176443
C     -2.3732323464     -0.1776689861     -3.3167859517
C     -0.346604814     0.8882746865     -3.8820833458
C     -1.0783937837     -0.3415974231     -4.0182619949
C     -0.7974386805     2.900082287     -2.523188684
C     -1.6264883568     3.3559214796     -1.4415877846
C     -2.7712634563     2.6735398326     -1.0550004469
C     -3.1354537447     1.462428633     -1.7277108364
C     -1.2734799427     1.8806741152     -3.3518467606
C     -2.5241736056     1.173364566     -2.9692114943


