58

 C     1.3422095854     0.0443203163     4.6066355945
C     0.6324502517     -1.1005488278     4.1736889412
C     1.4925967779     -2.011891521     3.4879054259
C     2.6301645806     -0.0145679041     3.9039669523
C     2.7485119943     -1.2708063994     3.245946271
C     2.7565489232     1.1411999939     3.1007086091
C     0.6270283489     1.1686422967     4.0528631499
C     1.4939036904     1.9142802453     3.2480207812
C     -0.5974270885     -0.7149367679     3.4909272395
C     -0.6030131597     0.7214180397     3.4017043017
C     -1.1011957866     -1.4670702858     2.4059069945
C     1.0789638263     -2.6194569366     2.2977703619
C     -0.2663346279     -2.494527808     1.793268722
C     3.0372093252     -1.3641502981     1.8610534715
C     2.1428277645     -2.3842308962     1.3196586504
C     3.0317479303     1.074760463     1.7141835795
C     3.2281991161     -0.1840176545     1.0400644912
C     1.0963227293     2.402775995     1.9815717031
C     2.1209324366     2.0141156714     1.0539326076
C     -1.1105862555     1.3613041399     2.2276717975
C     -0.2590363839     2.2991888183     1.5216320279
C     -2.0918776277     -0.8049383285     1.5829608536
C     -2.0834201879     0.6390652978     1.443979441
C     -2.6259630393     -1.5567460867     0.5142085679
C     -0.5092724258     -2.8273267234     0.3959474123
C     -1.7534539387     -2.5213784048     -0.1757847329
C     1.8958109974     -2.4624464754     -0.0262481961
C     0.5879073943     -2.8635276447     -0.5293586708
C     2.9089324678     -0.2535535004     -0.384845584
C     2.4257424959     -1.4834901331     -0.9244746768
C     1.8744622697     1.9993829786     -0.3200386856
C     2.464024639     0.9307242602     -1.1076970181
C     -0.5086793833     2.5701605544     0.1323693524
C     0.6389715578     2.6232346293     -0.7662146019
C     -2.6306166985     1.2577909027     0.2395470939
C     -1.8218982899     2.2906085178     -0.4254909535
C     -3.4528365686     -0.9521788848     -0.420515071
C     -3.5101169507     0.4617314298     -0.5647799712
C     -1.94926875     -2.33892966     -1.5894657143
C     -3.1386003591     -1.5365811606     -1.7409009217
C     0.4384881383     -2.4002304886     -1.8639468978
C     1.6103154001     -1.55749996     -2.1225693228
C     -0.8305407825     -2.0900359954     -2.4528007334
C     1.9978122611     0.7926273282     -2.447340662
C     1.4985266129     -0.485767194     -2.9555181179
C     0.4165285423     2.6751265627     -2.1635583298
C     1.1463020458     1.7564609613     -2.9930089461
C     -2.020658377     2.5356116205     -1.8376177955
C     -0.9012200088     2.7442570995     -2.6695852454
C     -3.613950934     0.6887608027     -1.9957490251
C     -3.2600954739     -0.5829090798     -2.7050422133
C     -2.9330186071     1.6933999425     -2.6009606333
C     -0.9256468654     -1.0200437851     -3.4905557634
C     0.2769982719     -0.2524979937     -3.748570801
C     0.2198178794     1.148903942     -3.9626234282
C     -0.9994323782     1.8366451076     -3.8544367681
C     -2.1813715334     -0.3017306358     -3.631866986
C     -2.1807257626     1.1315194972     -3.7665279273


