58

 C     1.4580419542     -0.0426888146     4.270273731
C     0.6905849648     -1.2727083453     4.1607465888
C     1.5343375923     -2.2401153081     3.5817412477
C     2.6356451742     -0.1957051551     3.3829991011
C     2.7425728257     -1.5178786137     3.0086408659
C     2.6077131158     0.8295304748     2.3626211708
C     0.7096263852     0.9810122584     3.7283022815
C     1.4667806912     1.644319066     2.6727319844
C     -0.5672064672     -0.978622256     3.4995931579
C     -0.6010221596     0.4607971781     3.317459213
C     -1.0711827118     -1.7924668137     2.4254364238
C     1.0521077289     -3.0650106743     2.5885308678
C     -0.2678600597     -2.9323645264     2.0503843579
C     2.8545123914     -1.8812983914     1.6241189226
C     1.9708575688     -2.9902409011     1.4334544978
C     2.8221092394     0.52334657     0.9745338815
C     2.9204844443     -0.879284557     0.5773538258
C     2.3495868265     1.5126186702     0.0118776958
C     0.7873803005     2.3758575682     1.7071774374
C     1.4490344196     2.5864613979     0.4339206061
C     -1.275688274     1.0679826535     2.2694834147
C     -0.6729442612     2.2966557799     1.7069236196
C     -1.9118358021     -1.1677779665     1.3881068327
C     -2.1097732046     0.2648524305     1.3806550388
C     -2.14909946     -1.8872249869     0.1316935722
C     -0.1545821762     -3.2248888068     0.6437131624
C     1.254544993     -3.1784235499     0.2652813669
C     -1.1343947962     -2.8713310743     -0.2806664162
C     2.4484295552     -1.2574235602     -0.7563089994
C     1.6188563926     -2.4633977025     -0.9216441266
C     2.2720189859     1.138935869     -1.3518747034
C     2.2759379497     -0.2364902921     -1.7217323521
C     1.4332625692     1.8549697547     -2.309747478
C     0.759057636     3.3591984978     -0.5232779827
C     0.7729689156     3.001589999     -1.9409483776
C     -1.336510466     2.9789245161     0.706757518
C     -0.5950566101     3.7325856229     -0.2492560956
C     -2.7335153732     0.9306709207     0.2364250056
C     -2.4591511438     2.3425098661     -0.0223406336
C     -2.880544707     -1.2568804486     -0.9036344074
C     -3.1630779979     0.1643272078     -0.8583593813
C     -2.6165767338     -1.5784314974     -2.2768844054
C     -0.6987413267     -2.9038622394     -1.6535985414
C     0.6830901442     -2.5489964942     -1.9593489221
C     -1.5124138595     -2.3292822772     -2.6442196822
C     1.3834516787     -0.3795272794     -2.8805326185
C     0.8210959974     0.8795881873     -3.2205184149
C     0.6311877464     -1.5668168492     -3.035242855
C     -0.6813952225     -1.4814305957     -3.531217459
C     -3.0546170594     0.70831426     -2.236359036
C     -2.5907368617     -0.3287898572     -3.0434001253
C     -0.57117659     1.0009911779     -3.6214717065
C     -1.3231043016     -0.2289940819     -3.7355700523
C     -0.5707890828     3.2303271245     -2.4843760962
C     -1.3606048116     3.7635555919     -1.4671853889
C     -2.5162296665     2.8948564752     -1.3160275168
C     -1.2831328024     2.1542836743     -3.1545060341
C     -2.5423142074     1.9992911033     -2.440687571


