58

 C     1.3762663524     0.2112853963     3.9679378442
C     2.5676943592     0.0188944804     3.2164586536
C     2.4191757592     -1.2443604787     2.5506638764
C     0.4718347668     -0.970912677     3.747369168
C     1.1206809827     -1.8106600904     2.8296381145
C     -0.8563639771     -0.523411349     3.4859292572
C     0.6186873269     1.3349802881     3.7664514694
C     -0.7870281219     0.9088175652     3.5382101381
C     0.9658818762     2.3043233918     2.7553129815
C     2.9961874888     0.9785886467     2.2486318225
C     2.2075944347     2.1795557408     2.0212901335
C     2.890999746     -1.1342651918     1.214233372
C     3.4179628788     0.2086879964     1.0768765601
C     2.2031441356     -1.7839453937     0.1538499508
C     0.3858719879     -2.4518882281     1.788094544
C     1.0339604192     -2.6130948777     0.495105225
C     -1.6451564541     -1.156237938     2.4895381236
C     -1.0721971683     -2.3398772598     1.8342447738
C     -2.5479397519     -0.3201427119     1.6963775829
C     -1.3122347891     1.6728653411     2.5150664911
C     -0.2428788979     2.5773442496     2.0345168463
C     -2.2728175652     1.1045977033     1.6134653734
C     -0.2522733997     3.0129696581     0.6743556058
C     2.2134851561     2.7355200684     0.6971316264
C     0.9985615621     3.1861220505     0.0340158803
C     3.4157142054     0.7801304982     -0.1789840821
C     3.001966644     2.1425751185     -0.3241118613
C     2.3008400282     -1.2193128104     -1.2061816511
C     2.9323219907     0.041922764     -1.3352178498
C     1.343487541     -1.6235240928     -2.2584973665
C     0.2474228369     -3.1103496814     -0.5766985858
C     0.3934382359     -2.6227652599     -1.9615349094
C     -1.7888252831     -2.9174512651     0.7697988394
C     -1.0946100575     -3.4564502292     -0.358596424
C     -3.2055252355     -0.9274161085     0.5747751525
C     -2.9545031246     -2.2645379234     0.2468644429
C     -3.4378376171     -0.199189721     -0.6824600417
C     -2.4136805714     1.7670684269     0.3625672127
C     -1.3976447441     2.659312762     -0.1225168639
C     -2.9978757392     1.1055723593     -0.7820906661
C     -1.2987481938     2.5074072499     -1.5622417483
C     -2.3227401666     1.5774730098     -1.9824304961
C     1.1125673182     2.9334687194     -1.4000511828
C     2.3615407159     2.2953881362     -1.5946323226
C     2.4116619173     1.0412186528     -2.2865427678
C     -0.016875257     2.545122751     -2.1938106607
C     0.9828041113     -0.6702371215     -3.2846563697
C     1.4064284981     0.7111511366     -3.1546929685
C     0.2131520748     1.5724224187     -3.2473178435
C     -2.1052211107     0.6913134944     -3.0452604497
C     -0.3391984576     -0.6385622876     -3.7817499756
C     -0.8245126736     0.7400106318     -3.6776620962
C     -0.9305449383     -2.6316130686     -2.557962208
C     -1.8405018283     -3.1375479645     -1.5761681179
C     -2.968141908     -2.4109352614     -1.2134661772
C     -3.2415142374     -1.1273768586     -1.8013251864
C     -1.3423574671     -1.5244293671     -3.33882539
C     -2.5015866041     -0.7156154691     -2.9130847893


