58

 C     1.329613198     0.1490449508     3.9805227153
C     2.5017122201     -0.0344167986     3.2313158726
C     2.4748488583     -1.3863109824     2.6985567854
C     0.4653756792     -1.0495377932     3.78852355
C     1.16525166     -1.9373005247     2.9392704945
C     -0.8260133319     -0.5821169124     3.4335009341
C     0.5371935661     1.2765099708     3.7964146713
C     -0.8464178175     0.8499452737     3.6101509641
C     0.8519880795     2.2367613144     2.7754043977
C     2.8260956325     0.8616160562     2.1604073433
C     2.0130967223     2.0339910136     1.9381446442
C     2.9777142187     -1.349198818     1.3872245758
C     3.2048174251     0.0394530091     1.0167627804
C     2.4286849117     -2.2167493235     0.4306722836
C     0.4562625254     -2.6252861411     1.8812684202
C     1.2118716656     -2.9527739597     0.7244101307
C     -1.5781897405     -1.2022376404     2.3629167514
C     -0.9758950605     -2.3576881199     1.7031938874
C     -2.5195235863     -0.3625135448     1.6267714259
C     -1.4089761495     1.6504230909     2.616871188
C     -0.3989070819     2.604153256     2.1592111578
C     -2.3714204713     1.1060042896     1.6935171369
C     -0.4733817723     3.1244755097     0.847692749
C     1.9141322906     2.4895492964     0.5853905581
C     0.7370560713     3.1494066914     0.0833063074
C     3.0256038988     0.4524716108     -0.3316160127
C     2.5084233075     1.7671823131     -0.5183967466
C     2.454565564     -1.894573203     -0.9629924072
C     2.7639290209     -0.5580212967     -1.3841656813
C     0.5936699127     -3.2493508272     -0.5458659004
C     1.4007543924     -2.6584688659     -1.60703564
C     -1.572153191     -2.8148234171     0.4853402983
C     -0.7791860612     -3.2713465864     -0.6600991815
C     -3.1160903494     -0.8993619828     0.4491151061
C     -2.6955875203     -2.1556894012     -0.0310474209
C     -3.3686177095     -0.0853775011     -0.7293315192
C     -2.6359545714     1.878014263     0.5491294066
C     -1.7104531024     2.9320251585     0.1323085168
C     -3.1813150408     1.2809515954     -0.6692076553
C     -1.7161597565     2.9595190224     -1.2757080551
C     -2.6094700832     1.9469099894     -1.7912737934
C     0.706984801     3.0000146333     -1.3655202513
C     1.8041494413     2.127319697     -1.7284554287
C     -0.5098110272     2.9063258301     -2.0333076086
C     2.1736798002     -0.1334664272     -2.6140451834
C     1.657554994     1.213287101     -2.7601394134
C     0.8070753455     -2.2158864772     -2.7807955705
C     1.2882927154     -0.9971173693     -3.3404724466
C     -1.4216304455     -2.7783501476     -1.8900965953
C     -2.6153044531     -2.1163340074     -1.4945614264
C     -2.9500012635     -0.8272580723     -1.9356658865
C     -0.6525758337     -2.2178555973     -2.9103449242
C     -2.0022648557     1.2474278974     -2.8654622761
C     -0.7008065323     1.88805303     -3.0853816411
C     0.3788362618     1.1278764559     -3.4950199747
C     0.1720745104     -0.2511003331     -3.8260344112
C     -2.1542430924     -0.1842121907     -2.9648265965
C     -1.0409587797     -0.9339880678     -3.4904454151


