58

 C     1.7269602521     -0.1673104572     4.2274136554
C     0.9299362504     -1.274686992     4.3316782692
C     1.344275296     -2.2806075956     3.3772570837
C     2.658831461     -0.3801830518     3.1195425136
C     2.409893088     -1.7065427319     2.5709950114
C     2.466706723     0.6933351115     2.2415853379
C     0.8661423887     0.982641019     3.9026783889
C     1.3984456183     1.5917198815     2.7708651998
C     -0.4751486384     -0.8847312136     4.0382609037
C     -0.5236196646     0.5388028996     3.8301929155
C     0.1667248801     -2.6688642092     2.695716246
C     -0.9519433457     -1.7424895604     3.0395970996
C     0.2579378998     -3.0835702537     1.386067309
C     2.4089695793     -1.8953218506     1.1561808518
C     1.4633857545     -2.8297143528     0.6300208245
C     2.5787497198     0.5595328715     0.8212727215
C     2.68539509     -0.7643368295     0.2516995168
C     2.0994365348     1.6798725258     0.025074572
C     0.5613777225     2.3195267885     1.8802414434
C     1.0823265741     2.6054803291     0.5619872181
C     -1.3506758827     1.0584598764     2.8220180617
C     -0.8707404634     2.2465087892     2.0971019925
C     -1.8285156723     -1.25988402     1.9976225297
C     -2.1821814696     0.1374094721     2.0359629195
C     -0.8458607616     -2.9280163844     0.4716106062
C     -1.8721713281     -1.9761648441     0.7117396905
C     1.1205972031     -2.8756528393     -0.7593258411
C     -0.2998967633     -3.0873500955     -0.8493207519
C     2.5236443899     -0.9238039599     -1.1887385686
C     1.7919952415     -2.0800414119     -1.7361094613
C     2.2307822779     1.5496178134     -1.3647863156
C     2.5336026043     0.2705339904     -1.9636174328
C     1.3482899933     2.2809897653     -2.2836586094
C     0.2064391156     3.2614102683     -0.3466597027
C     0.2746527518     3.0009261543     -1.7798969605
C     -1.7142174794     2.8014961166     1.1109287873
C     -1.1556709751     3.4434917127     -0.0126629364
C     -2.8971969632     0.6877008447     0.9230988199
C     -2.8677638515     2.0525050669     0.6427800629
C     -2.4983303159     -1.3410751162     -0.4679606867
C     -3.0437371581     -0.0496761536     -0.3398539428
C     -0.9966469206     -2.6520767783     -1.9748161025
C     -2.1142747719     -1.7131896016     -1.7923423966
C     1.1279778046     -1.9729721249     -3.0102885359
C     -0.2686098987     -2.3022295678     -3.1053200089
C     1.9593310179     0.2833529512     -3.2867831536
C     1.1321395357     1.4954735742     -3.4295621427
C     1.2856128453     -0.7909968274     -3.8059256988
C     -2.0647024389     -0.7635762596     -2.8678624087
C     -0.9801246287     -1.1722156467     -3.7393373848
C     -0.1718829937     1.1276342621     -3.8599683474
C     -0.0678086341     -0.2752792188     -4.2127444602
C     -1.0651626531     2.752531973     -2.2870367277
C     -1.9390982225     3.0684487772     -1.2062459255
C     -2.9419172603     2.2025207564     -0.8035448358
C     -3.0149116194     0.9042188139     -1.4206393326
C     -1.318848892     1.6181655093     -3.1352200339
C     -2.3188999263     0.6282520049     -2.6409618167


