58

 C     1.5016700932     -0.2835235499     4.2660019621
C     0.7382177841     -1.4148529257     4.3297285659
C     1.2086752502     -2.2995308631     3.2657673579
C     2.5050337474     -0.4012358296     3.2084421915
C     2.2806309624     -1.633603593     2.4942860399
C     2.5088281432     0.8043086648     2.5081331637
C     0.6985902989     0.916111759     4.0073849643
C     1.3885047383     1.6386765731     2.997610282
C     -0.6370035277     -0.986558892     3.9872076918
C     -0.6093483377     0.4570554288     3.6882308729
C     0.0949979916     -2.6475807006     2.5254336221
C     -1.061480239     -1.7886604163     2.9509187372
C     0.1944140365     -2.9779891431     1.1554422934
C     2.2415341241     -1.6085535971     1.0565010834
C     1.3010096025     -2.5071012651     0.3586429302
C     2.7924784205     0.8239374972     1.1149417092
C     2.6644667232     -0.3991037713     0.3394915892
C     2.5304839041     2.0812493195     0.5133440531
C     0.684021616     2.4611305739     2.0949218801
C     1.4309917286     2.8985430308     0.9783838352
C     -1.3170737338     1.0042278314     2.531225093
C     -0.7577108969     2.2052463817     1.9171690863
C     -1.9662669255     -1.3056901741     1.9308217704
C     -2.1236562775     0.1295402293     1.7056931214
C     -1.0755712421     -3.1486444067     0.5447292264
C     -2.1503451425     -2.1679653684     0.8675150302
C     -1.1337933102     -3.3977603665     -0.7956086254
C     1.1391154642     -2.4636810822     -1.0858594848
C     -0.004841016     -3.1438632397     -1.6528225857
C     2.4272616532     -0.2815667991     -1.1041935599
C     1.7214520714     -1.336649627     -1.8328743163
C     2.5138638783     2.1766168147     -0.8839523566
C     2.4789387644     1.0249368973     -1.7006691976
C     0.80166277     3.5130431136     -0.1844972438
C     1.5679554593     3.1800374054     -1.3453667555
C     -1.355858716     2.6931798377     0.7467902061
C     -0.5991803759     3.4584949169     -0.263648398
C     -2.6007436736     0.5637231709     0.3895399863
C     -2.3294031533     1.9084868161     0.0370764881
C     -2.7554268198     -1.7736220665     -0.3869278815
C     -2.3163290066     -2.7145951291     -1.371812365
C     -2.8887382967     -0.3915327999     -0.6993761435
C     -0.585020591     -2.7111023782     -2.8879568657
C     -2.0056807533     -2.3377780163     -2.64841549
C     1.1237957595     -0.9771184113     -3.0889995401
C     -0.0311755508     -1.6612710852     -3.5805980864
C     1.626380872     1.3992832266     -2.8269894828
C     0.9674554328     2.6928500078     -2.5275289193
C     0.9537147011     0.4193677601     -3.4885881166
C     -1.1924375065     3.2150982509     -1.5304438113
C     -2.2729022475     2.2955382918     -1.3492984706
C     -0.435476642     2.7849176282     -2.6833225738
C     -2.6833141205     -0.0003250824     -2.1241360569
C     -2.2108695265     -0.9813295858     -3.0749439323
C     -1.0640641307     -0.6511532714     -3.8741472113
C     -0.4672560954     0.6129067525     -3.8546457824
C     -2.2958494015     1.3529820162     -2.3924714753
C     -1.159328755     1.6824532403     -3.2712801246


