58

 C     1.0860896016     0.049748067     4.5401609817
C     0.4175730144     -1.1687502962     4.6242077243
C     1.0240963066     -2.1262605138     3.7179888861
C     2.102147386     -0.110100982     3.5126736724
C     2.0761983066     -1.4678768098     2.9890606458
C     2.0240466456     0.9519009698     2.5945173934
C     0.1421144781     0.9967554178     3.9694211786
C     0.7396143228     1.6772369921     2.8938295313
C     -0.9543690857     -1.008995053     4.179031736
C     -1.1404904809     0.3486296964     3.7386473925
C     -0.0109695555     -2.8025758188     2.9956162766
C     -1.2833392571     -2.0840519686     3.2921173078
C     0.2351868667     -3.1835197765     1.686770093
C     2.2174825824     -1.6754233138     1.5772821194
C     1.410939042     -2.6936061987     0.9751463731
C     2.37941613     0.7815902314     1.2492722541
C     2.5645517282     -0.5563413878     0.7086837039
C     2.0061416179     1.8782280512     0.3642816324
C     -0.0192416221     2.1361437493     1.8082327463
C     0.7527331416     2.5860443789     0.656364139
C     -1.8548342182     0.6242674367     2.5262563266
C     -1.3876355519     1.675510713     1.6296640479
C     -2.1532318561     -1.8347482826     2.2433446093
C     -2.528482463     -0.4689631861     1.8931519081
C     -0.8435957051     -3.2379110297     0.7093994131
C     -2.0372760921     -2.5638241015     0.9875633937
C     1.1147671823     -2.6822886762     -0.4258993839
C     -0.2619478135     -3.1074303961     -0.6043693626
C     2.484498259     -0.6869118472     -0.7252161138
C     1.702691977     -1.7581734947     -1.3309885425
C     2.4381758887     1.8271712188     -0.9464375812
C     2.7205369241     0.49344     -1.5076027337
C     1.8599354544     2.6493106108     -1.9995864566
C     0.0686851977     3.1652536888     -0.3942739268
C     0.6513755994     3.3318002375     -1.7179551197
C     -1.9451474173     1.8145672061     0.307026513
C     -1.3476162642     2.7907795116     -0.5595988133
C     -2.8594974975     -0.4379692433     0.5002256862
C     -2.6413397457     -1.7637565426     -0.0498983594
C     -2.6749769801     0.7139536769     -0.3108579672
C     -0.995578049     -2.5822735486     -1.6546167657
C     -2.2309980323     -1.8846155898     -1.3667261258
C     1.0402256412     -1.5172200656     -2.6217645198
C     -0.3410696239     -1.8785441301     -2.7263048709
C     2.3957946851     0.5476499208     -2.8597943283
C     1.9686374318     1.9003336114     -3.2226355687
C     1.4749736828     -0.4117602414     -3.4358916878
C     0.8777465057     1.773273189     -4.0932104066
C     0.5663479459     0.3310452241     -4.2288797637
C     -0.4293550386     3.254511383     -2.6638301202
C     -1.613731498     2.8118819103     -1.925452329
C     -0.3313947     2.4560910979     -3.8114436088
C     -2.6125027908     0.545523654     -1.7705672504
C     -2.3146745102     -0.7640235603     -2.2663946949
C     -1.2873690263     -0.9285446762     -3.2742817075
C     -0.8425172506     0.1690645432     -4.0251814887
C     -2.1780415407     1.6511453915     -2.5846276169
C     -1.4214998627     1.4536089738     -3.7656504804


