58

 C     1.3707384674     0.1252756104     4.0389653577
C     2.4837080233     -0.0912607081     3.2338147569
C     2.310249978     -1.4294823753     2.5922130509
C     0.4765493518     -1.051669912     3.9311981373
C     1.0223835801     -1.9400092702     2.971706903
C     -0.8617522057     -0.5759357691     3.7724866862
C     0.5879633241     1.2790701328     3.8264472072
C     -0.8123372734     0.8537020698     3.7354024723
C     0.8505626981     2.1421046702     2.7307625656
C     2.8313819172     0.8115214817     2.2068140094
C     2.004701024     1.959359101     1.8994911913
C     2.7330675462     -1.3787040716     1.2746242103
C     3.2643001654     -0.0277204216     1.0823152651
C     2.0005965931     -2.0226703001     0.1951843538
C     0.203091281     -2.5388973751     1.9392776065
C     0.7761359895     -2.7097553992     0.5771267178
C     -1.7041068068     -1.2467134673     2.8631516359
C     -1.1984515607     -2.3492947692     2.0636144123
C     -2.6070954898     -0.5196252104     2.0189650071
C     -1.4437146552     1.5490827957     2.6895480637
C     -0.4397651456     2.4094317383     2.0760754248
C     -2.4265812408     0.8882459203     1.8670133235
C     -0.5279495776     2.7717198106     0.7284631288
C     1.9588492652     2.4386038881     0.5098459427
C     0.707243464     2.9480752444     -0.0594477528
C     3.3427168879     0.4847930458     -0.154906258
C     2.8990721184     1.8582146491     -0.4085006357
C     2.1748117331     -1.5258026904     -1.1566701369
C     2.9913050381     -0.3361770526     -1.3282147494
C     1.1879103098     -1.8127194615     -2.199013792
C     -0.1001528259     -3.0614088373     -0.4673764563
C     0.1510804661     -2.723375183     -1.8431021484
C     -2.059651263     -2.4820895758     0.9197556306
C     -2.9170440363     -1.3431845921     0.850141227
C     -1.5634272515     -3.0508229388     -0.2619241428
C     -3.2950036209     -0.7924484367     -0.4180306446
C     -2.6364202891     1.4302931656     0.5698290247
C     -1.7522698424     2.4114639909     0.0473235407
C     -3.1608277549     0.6337336691     -0.5452367264
C     -1.8195888253     2.3207196979     -1.3941252578
C     -2.7156309456     1.235224098     -1.7597486551
C     0.5594541102     3.0051302661     -1.4828226728
C     -0.6942775482     2.6100676473     -2.1340830112
C     2.7138779819     1.9243469206     -1.7944102696
C     2.7634909047     0.5490732239     -2.3675472586
C     1.6009224551     2.5450319246     -2.3364364244
C     0.8949687495     -0.8088707277     -3.2582869688
C     -0.3700490354     1.7711467665     -3.3078318342
C     1.6754248701     0.3926983456     -3.2839950929
C     1.0321876185     1.6656183217     -3.3633909613
C     -2.4104146295     0.417208706     -2.8802755539
C     -0.4671539693     -0.6561242693     -3.6991625639
C     -1.1240471677     0.6336217033     -3.5793651326
C     -1.1357045265     -2.6613998269     -2.4972167838
C     -2.1815957923     -2.7471430967     -1.4714061923
C     -3.037981265     -1.5960912979     -1.5949064245
C     -1.4468997744     -1.6287853417     -3.3452888413
C     -2.6588516227     -0.9563962481     -2.8188335205


