58

 C     1.5905501921     0.036399102     4.0163010105
C     0.7909865458     -1.1259236506     3.8864276198
C     1.3890020539     -2.0204444462     2.9274707584
C     2.6408553106     -0.0456762988     3.0801446405
C     2.5358243109     -1.3119053936     2.3742483162
C     2.6712913053     1.1698333375     2.3051563967
C     0.7718638489     1.1724174308     3.608707192
C     1.4611881327     1.943846583     2.6329021191
C     -0.5729800986     -0.7117315401     3.6516006066
C     -0.5596113789     0.7358668424     3.3626246779
C     -1.4089766351     -1.5225251697     2.9369666448
C     0.5485290689     -2.8265562342     2.1004245575
C     -0.8838855729     -2.7242176101     2.2937238443
C     0.9749965412     -3.0671316834     0.747916659
C     2.7893526039     -1.3519115048     0.9712801528
C     2.0483408038     -2.293127943     0.1785304167
C     3.0702928636     1.1218233693     0.9823617766
C     3.1828316922     -0.1489469354     0.2946533813
C     2.5717879396     2.0986852781     0.049350055
C     0.7397736899     2.6134393594     1.6205033614
C     1.4643835397     2.9354902782     0.3771448923
C     -1.2974799471     1.2714106136     2.2654521476
C     -0.6960583426     2.3636840518     1.5307733718
C     -2.3965299858     -0.9372276415     2.0244558903
C     -2.2956606494     0.4097282608     1.5914244403
C     -1.7632576306     -3.0207116653     1.2309418149
C     -2.7151979762     -1.948253835     1.0850384999
C     0.0450590539     -3.3787231237     -0.3229562421
C     -1.3329395524     -3.3680824247     -0.0819081691
C     1.7800815605     -2.0751881786     -1.2251452841
C     0.5690315721     -2.8013437887     -1.5516570418
C     2.84406553     0.0902930792     -1.0793620831
C     2.6355233339     1.5019635883     -1.2626598478
C     2.0982740131     -0.8518944711     -1.870390219
C     1.8427909933     1.9900941623     -2.3084125895
C     0.738087972     3.4888584673     -0.718303678
C     1.0508911238     3.1298521529     -2.0716248403
C     -1.3644286387     2.7870910932     0.3435879041
C     -0.6915266053     3.5251225846     -0.6421681299
C     -2.7637112722     0.7212994929     0.2262058474
C     -2.3844915863     1.9654976821     -0.3065498381
C     -2.9774241397     -1.7008368335     -0.2870997543
C     -2.2066210845     -2.6803141473     -1.0387842259
C     -3.1079664059     -0.3545034093     -0.7317350059
C     -0.2751489477     -2.3426384971     -2.5423071828
C     -1.7212830656     -2.3219077179     -2.2879449768
C     1.2212280409     -0.3520297872     -2.9561844693
C     1.1255181886     1.0519066612     -3.1873399395
C     0.0661980087     -1.1440440932     -3.3070396724
C     -0.1979553777     2.9306578501     -2.8077123426
C     -1.2566578948     3.1881734881     -1.9488237572
C     -2.2989525859     2.2167966475     -1.7515068349
C     -0.1379618222     1.6819252638     -3.5236139301
C     -2.868524457     -0.1331866698     -2.1334896273
C     -2.2210635277     -1.1400146417     -2.8872959234
C     -1.1515575837     -0.4991124158     -3.64060205
C     -2.4045231786     1.1553911627     -2.6353399396
C     -1.3062238406     0.9025638579     -3.5883614409


