58

 C     1.6254938475     -0.2449633779     4.2049342989
C     0.8169756417     -1.4155089706     4.1448488538
C     1.5966673366     -2.452580798     3.5348453102
C     2.7473706246     -0.4713488668     3.2881935186
C     2.8160355776     -1.8178442917     2.9538294643
C     2.696070344     0.5352595409     2.2356434402
C     0.8804444643     0.8231686743     3.6587727172
C     1.5842298097     1.4222165996     2.5645038464
C     -0.460740435     -1.0576654849     3.5452676657
C     -0.4585715903     0.3994384275     3.3694923477
C     -1.0341812564     -1.8419354788     2.4968686674
C     1.0355423724     -3.2266378704     2.5384109493
C     -0.2807069846     -2.9855000255     2.014842549
C     2.9139231733     -2.201176172     1.5650366212
C     1.9434970812     -3.223043908     1.3743016143
C     2.9392417857     0.2204347605     0.8713512192
C     3.0658652625     -1.2035791979     0.5161743914
C     2.4613249085     1.1826022119     -0.11931697
C     0.8870254192     2.1013243944     1.5629250815
C     1.5764115925     2.2409204767     0.2839605458
C     -1.1742159783     1.0211445977     2.3408296086
C     -0.554333455     2.1003595461     1.563948007
C     -1.9555961819     -1.2018027416     1.5660361057
C     -2.1530762237     0.2273945827     1.6343582329
C     -2.2267304677     -1.8202618932     0.265984836
C     -0.2286419231     -3.1911751919     0.5837351941
C     1.1778161489     -3.3197368517     0.2023739285
C     -1.1650917217     -2.6337113991     -0.3061783393
C     2.564240635     -1.5600884891     -0.7650521928
C     1.6074883492     -2.6143576322     -0.9164353017
C     2.3689214022     0.8086819774     -1.5489046019
C     2.2437130661     -0.5806953547     -1.7788509865
C     1.7420432491     1.6794102035     -2.4772674553
C     0.9564038593     3.0594726912     -0.6818907471
C     1.2919950118     2.9834983687     -2.0561321575
C     -1.2535764382     2.7091409269     0.4433377859
C     -0.4851260941     3.3955665006     -0.5542711902
C     -2.9234728413     0.8974439506     0.6287337192
C     -2.5249854172     2.2067439495     0.0700932903
C     -3.1094201818     -1.1625878056     -0.6266209977
C     -3.5877376253     0.1633582248     -0.3363026395
C     -2.8263596487     -1.1322433412     -2.0242266767
C     -0.7303951735     -2.3381310619     -1.6886213566
C     0.6560200159     -2.2223745113     -1.9292797814
C     1.162500868     -1.0705955572     -2.6150240482
C     -1.5732909157     -1.5315064073     -2.5197402949
C     0.7479574761     1.1891189785     -3.4325897291
C     0.3340115712     -0.1739792778     -3.3521513637
C     -1.068225308     -0.473470531     -3.3837160298
C     0.1277004142     3.3303407777     -2.7994832846
C     -0.9723171383     3.5337681804     -1.8714343004
C     -0.2388904209     2.2240360679     -3.5887587162
C     -2.9623640489     2.2477704168     -1.3081492508
C     -3.5911212666     0.9736420254     -1.5712370344
C     -3.1645462064     0.1766191116     -2.6096263917
C     -2.0711420181     0.592746253     -3.452532219
C     -2.1317915154     2.7938768167     -2.3061754529
C     -1.6602827924     1.9290032357     -3.4036643103


