58

 C     1.5098839612     -0.0039400105     4.0306388523
C     0.6822487189     -1.1494412572     3.8460065034
C     1.2171472086     -2.0062594771     2.8268804792
C     2.5089891546     -0.0419090779     3.0360634508
C     2.349372986     -1.2698681233     2.2765392987
C     2.4258939097     1.1578806326     2.2517735679
C     0.6480134748     1.1160983833     3.7052856844
C     1.2332687217     1.8897438994     2.687852247
C     -0.7056262989     -0.7677363124     3.8000728433
C     -0.713776296     0.6895446804     3.5468192827
C     -1.5750763313     -1.566751663     3.0829257552
C     0.3187069842     -2.7077063662     1.9583808826
C     -1.0847029327     -2.5963747952     2.1684089881
C     0.7615135948     -2.9218623944     0.6075626027
C     2.6547157339     -1.3131371307     0.8874170413
C     1.9661466373     -2.2919183215     0.1229358154
C     2.8562861443     1.2003774896     0.9006531478
C     3.1070407451     -0.0746963155     0.195811603
C     2.4023501633     2.3131154829     0.1616573416
C     0.4351787218     2.5513553311     1.7075628073
C     1.1789646758     3.0040142689     0.5862552784
C     -1.5281630031     1.2400927067     2.5003045853
C     -0.9712814376     2.2182423815     1.5578935713
C     -2.6952543208     -0.9407997886     2.4511132361
C     -2.6174108355     0.4050294714     2.0551527864
C     -1.9997169209     -2.6402353172     1.0336050216
C     -3.033704868     -1.7024884322     1.27296869
C     -0.1330000793     -3.0450195563     -0.5024424741
C     -1.5376428556     -2.8494110669     -0.330594166
C     1.8724917184     -2.1948779795     -1.3112974796
C     0.5583482655     -2.6095552263     -1.7124210041
C     3.1092671431     -0.0536931914     -1.2021766749
C     2.5259682403     -1.1626152472     -1.9769382179
C     2.4648358332     2.3453766938     -1.2829599887
C     2.8458375263     1.1715725103     -1.9623761189
C     0.511298402     3.3807702079     -0.5786830044
C     1.3239723713     3.0631325502     -1.755221313
C     -1.5852844749     2.3814778489     0.2272172352
C     -0.8343114367     3.0248968516     -0.7994221866
C     -3.1542211721     0.5093072893     0.6840669082
C     -3.471036548     -0.8340301304     0.2439557377
C     -2.6562307476     1.4723676448     -0.2128372329
C     -2.2479673288     -2.2222745761     -1.3956852126
C     -3.2353078118     -1.2106532914     -1.0849215065
C     -0.1253946775     -1.9514881971     -2.7729306438
C     -1.5503610268     -1.7922092756     -2.6207301614
C     1.9316136301     -0.6295630808     -3.147979908
C     2.1304815902     0.8131417269     -3.1433375686
C     0.5972807785     -0.9246587206     -3.5042560824
C     0.4828248898     2.5660868852     -2.7586248356
C     -0.8902358759     2.6017884993     -2.222487784
C     0.9105277148     1.4305536642     -3.5155749302
C     -0.0374683214     0.3661020749     -3.8155936621
C     -2.7530404729     1.1379397605     -1.6298442747
C     -3.0775177333     -0.1688631153     -2.025444856
C     -2.1398567914     -0.5905427474     -3.0609587503
C     -1.7912537569     1.6541092765     -2.6087954196
C     -1.3756252836     0.5304619431     -3.4792457883


