58

 C     1.5223318651     0.0086400536     4.0524619742
C     0.711662848     -1.1345802395     3.9685033338
C     1.255965825     -2.0132762466     2.9430306342
C     2.5727940436     -0.0616659182     3.102883396
C     2.4801154238     -1.3611207258     2.4759162269
C     2.4460087479     1.0790910308     2.2535153204
C     0.7017266942     1.1819219443     3.7813615786
C     1.2628594033     1.8575638052     2.6580755435
C     -0.6712231402     -0.6977354404     3.9177071839
C     -0.6621470012     0.7905792204     3.7903859304
C     -1.5433375878     -1.4241042177     3.1522280537
C     0.3920704557     -2.640054008     2.0063987158
C     -1.0318086838     -2.4966555078     2.2660818949
C     0.8141877643     -2.8307936911     0.5959474571
C     2.8231472362     -1.4670118189     1.1486140779
C     2.0861533227     -2.3163942536     0.2355566824
C     2.7926687399     1.0030008299     0.8808880417
C     3.1957539184     -0.278453686     0.3932640507
C     2.1673116079     1.9302601102     -0.0678683029
C     0.4141660894     2.4143586304     1.6507094925
C     0.9084239251     2.5717715011     0.2746146353
C     -1.5161799494     1.3856305179     2.8634946085
C     -0.9935297241     2.2743424837     1.8557841641
C     -2.6440627136     -0.7580774905     2.4261426398
C     -2.601462479     0.6275234916     2.2509893421
C     -1.929708157     -2.6065757129     1.2139140712
C     -2.9735494564     -1.5822554947     1.3114213564
C     -0.1823535319     -2.9134047882     -0.4914137906
C     -1.5631177248     -2.7706098502     -0.1522218048
C     0.1618023047     -2.5242571136     -1.8186426861
C     2.3837035948     -1.8686536046     -1.1091933403
C     3.0939615833     -0.6021958021     -0.9966456266
C     1.47468287     -2.0320300599     -2.1396956103
C     2.4795040505     1.722743984     -1.4447307009
C     2.8844936994     0.3941836736     -1.9264978459
C     1.69201173     2.309975872     -2.4390110471
C     -0.0372727739     2.8998108843     -0.7962265385
C     0.433792433     2.8828582886     -2.1491606222
C     -1.8782389276     2.2176460617     0.7169945034
C     -2.8447757643     1.1713089413     0.9363786017
C     -1.4662103158     2.6052127423     -0.5743323388
C     -3.2027920168     -1.0865543105     0.0340277964
C     -2.4191088785     -1.9166898777     -0.9187197453
C     -3.2268383221     0.3394356326     -0.1696136921
C     -0.7643389397     -1.8250555047     -2.6895974662
C     -2.0384019174     -1.4155666104     -2.1804771204
C     1.3740261481     -1.05418468     -3.2205626525
C     2.1521022317     0.1166900422     -3.1548584179
C     1.5446884826     1.3520907758     -3.5632783764
C     -0.0198963403     -0.9894965251     -3.6274361489
C     -0.4414664687     2.4582048019     -3.2430911375
C     0.2591041103     1.4162682988     -4.0462820649
C     -0.5785799729     0.2329286777     -4.0634110276
C     -2.241475187     2.052805026     -1.6553507861
C     -2.9319150447     0.8219454568     -1.4580136084
C     -2.522457645     -0.0969203888     -2.5563193357
C     -1.6991466797     2.0087704467     -2.9815906609
C     -1.8558257952     0.6368102921     -3.5230488312


