58

 C     1.107602369     -0.0970585303     3.9320271789
C     2.2541798481     -0.4248026375     3.2545005528
C     2.2015024086     -1.8413881368     2.854895191
C     0.2539834285     -1.3162908022     3.9302242875
C     0.8747258148     -2.3179927126     3.0970605095
C     -1.0230679022     -0.9070768615     3.6659050686
C     0.3129067442     1.017298874     3.4914416059
C     -1.0423355661     0.5693510427     3.5260580193
C     0.7285599027     1.830923055     2.3811154174
C     2.7264555606     0.3527633325     2.141735604
C     1.9939459599     1.5008550155     1.7025167567
C     2.8233582074     -1.9446261934     1.6005163998
C     3.240860271     -0.5913821768     1.1704021164
C     2.257158991     -2.7977979039     0.6497913203
C     0.1302357262     -2.91321936     2.0072613968
C     0.9200816204     -3.3186328684     0.8816902121
C     -1.8041533795     -1.4580700889     2.593284518
C     -1.2552824433     -2.4495418683     1.7240645991
C     -1.9590688336     0.9051176848     2.5389919199
C     -2.5580659764     -0.3458930789     2.0519395491
C     -0.3261485913     2.4673709259     1.5978786279
C     -1.6916722773     1.972742841     1.6253905703
C     0.0762660274     3.1699523668     0.4166954022
C     2.1809310194     1.8923799822     0.2975463749
C     1.2915300459     2.8236096129     -0.2714941253
C     3.2679811433     -0.2841177065     -0.1780870452
C     2.8212686769     1.0024362959     -0.6199555262
C     2.4000179968     -2.5035547967     -0.7850350482
C     2.9037418016     -1.2629641649     -1.1905490945
C     0.3317514515     -3.4535711931     -0.4083797679
C     1.2603953832     -3.0302308218     -1.4513363587
C     -1.7652852309     -2.4531369928     0.332052085
C     -0.9494054547     -2.9961780454     -0.7179482258
C     -3.0413895794     -0.3793308664     0.7724130457
C     -2.6925236897     -1.4655836645     -0.0917588505
C     -2.5115733966     2.0286163045     0.4102362592
C     -3.1622262892     0.8361659549     -0.0092330358
C     -0.8577027477     3.552689543     -0.5657232588
C     -2.1395380439     2.949940129     -0.6417986261
C     1.0456316516     2.9154441918     -1.7201427496
C     -0.2182321704     3.5340974614     -1.8902534148
C     2.3229770641     0.8624657031     -1.9718046822
C     2.2682761918     -0.5443784804     -2.2697710063
C     1.423229581     1.8020575554     -2.554586926
C     0.5540116146     -2.3033980563     -2.4116459817
C     -0.8653753403     -2.3556165978     -2.032703728
C     1.0960689639     -1.0676860254     -2.9349788221
C     -2.7193998177     -0.9269107051     -1.4463456073
C     -3.1520255147     0.436487566     -1.3979798942
C     -1.7380911332     -1.337828921     -2.4203257292
C     -2.3834212388     2.6524554659     -2.02167166
C     -1.1504950366     3.0038645393     -2.788314349
C     -2.7648433874     1.3583595221     -2.4153696099
C     0.4445048281     1.284843968     -3.488499927
C     0.200075648     -0.1417024621     -3.5014056185
C     -1.2498236587     -0.3336028497     -3.3621551701
C     -0.8264384918     1.9286217063     -3.6215529624
C     -1.8666307501     0.9126549194     -3.466827797


