58

 C     1.5701249701     -0.0807275412     3.9359799601
C     0.7687575066     -1.229724375     3.6595943057
C     1.3887629847     -1.9580682145     2.5923778224
C     2.6789681721     -0.0788442918     3.0438531425
C     2.6235059087     -1.2525739166     2.2251688272
C     2.6983319422     1.196276917     2.3628135013
C     0.7515096076     1.0462504527     3.6104471609
C     1.4066802085     1.851330531     2.6237558633
C     -0.6033026387     -0.8197171833     3.5004148786
C     -0.6208467112     0.6343734821     3.4190647416
C     -1.4055754304     -1.5428312504     2.6370248801
C     0.5938390837     -2.606016221     1.5973106826
C     -0.8276671247     -2.535463641     1.7716913495
C     1.1393739736     -2.7502823783     0.232158284
C     3.0764144664     -1.2191758127     0.8714974903
C     2.3970129235     -2.0555884357     -0.1312451588
C     3.2364937298     1.2580505354     1.1128454787
C     3.6728565256     0.0353109542     0.4408299321
C     2.6113679671     2.1132966259     0.0975637385
C     0.6456007382     2.4398960264     1.5791760269
C     1.2790384098     2.6097888739     0.2616019872
C     -1.4339854405     1.297919175     2.4876351253
C     -0.8148660459     2.3436166345     1.667036502
C     -2.4635147275     -0.8827140793     1.9036788858
C     -2.5541764447     0.5394797943     1.8813348028
C     -1.7262730822     -2.6658640118     0.6518816167
C     -2.7596014797     -1.6593483721     0.7216632466
C     0.2241478412     -3.0944634327     -0.7971188016
C     -1.2168026077     -3.0529804436     -0.5796495641
C     0.417161475     -2.6397187067     -2.1656588294
C     2.5828800251     -1.7167913308     -1.5148217212
C     1.5085601688     -1.8802105903     -2.4835553375
C     3.722293553     0.3518836987     -0.9314140341
C     3.0193821728     1.640340905     -1.1538325401
C     3.2588348116     -0.5220523271     -1.8849393002
C     1.3007881893     -0.6020093622     -3.1891362296
C     2.1304876295     1.522736364     -2.2636174552
C     2.3494879948     0.2210232918     -2.8018586928
C     0.4546168682     2.7331092109     -0.9348681592
C     0.8096742689     2.0426914268     -2.1776594145
C     -1.5469299588     2.8267667859     0.5726584521
C     -0.9076441537     3.0394179429     -0.7223132694
C     -3.2766733697     1.1094354612     0.8044910226
C     -2.9068801867     2.4151321166     0.3186163261
C     -3.3136493662     -1.0513995124     -0.455173124
C     -3.687553664     0.3208955912     -0.3467406356
C     -1.8726749347     -2.5574991784     -1.7610567676
C     -0.854394244     -2.2618637246     -2.7250144026
C     -2.8473930299     -1.5387941865     -1.7339918367
C     -0.0200189071     -0.0426822918     -3.3465177125
C     -0.2438467714     1.3423815056     -2.9200858624
C     -1.1051327594     -0.9744422971     -3.2547379452
C     -2.4211507231     -0.5711116654     -2.7546931998
C     -1.8851577187     2.7335309021     -1.7108666638
C     -3.1669435879     2.4829876394     -1.0720527908
C     -3.5480597614     1.1892171475     -1.4912911351
C     -1.5932483855     1.7412000643     -2.6864160298
C     -2.6929908512     0.7646187278     -2.5938394498


