58

 C     1.3002865953     0.0657790406     4.5886437003
C     0.6126064685     -1.0996753084     4.1468557346
C     1.5125593282     -1.905363946     3.4238776978
C     2.6144359573     0.0889593446     3.8698887251
C     2.7526688246     -1.1215054474     3.1651697868
C     2.719511978     1.2930926013     3.1659497673
C     0.5749911171     1.1837145135     4.1444054746
C     1.4580198943     2.0459332898     3.4213508845
C     -0.6420998673     -0.7023609512     3.47921928
C     -0.6675733237     0.7368898326     3.4799637027
C     -1.1337138912     -1.4113262288     2.3618958522
C     1.1017006203     -2.5149725496     2.2360379629
C     -0.282274325     -2.4887944668     1.82767144
C     2.9414865681     -1.1384641598     1.7572486993
C     2.0791428926     -2.1836605091     1.2237489526
C     2.9012680741     1.2982089711     1.7499107397
C     3.0255364195     0.0832548216     0.9719458846
C     1.0294513142     2.6194613065     2.2439362985
C     2.024333917     2.3063430149     1.2050424247
C     -1.1852284818     1.4289193681     2.3672209099
C     -0.3653113913     2.5451938286     1.8438236353
C     -2.0068366466     -0.7244747956     1.41657397
C     -2.0355687492     0.7182610207     1.417772589
C     -2.4437897037     -1.4462482701     0.209594296
C     -0.501802913     -2.9141539847     0.5281356542
C     -1.6950133967     -2.5835594635     -0.2076259334
C     1.7746559518     -2.2733529576     -0.1330215161
C     0.5744684859     -2.983434168     -0.4415831014
C     2.5806550992     0.0788069711     -0.424507119
C     2.1891186472     -1.1958560652     -1.0349466052
C     1.6942135314     2.3727068622     -0.1404572594
C     2.0583732188     1.2895187462     -1.0479214332
C     -0.6097979966     2.9973645228     0.5714333884
C     0.4897960838     3.1188483906     -0.4149082485
C     -2.4906485931     1.4327541353     0.2068688815
C     -1.8000349687     2.6423411917     -0.1612926082
C     -3.1379238018     -0.74298913     -0.8274186091
C     -3.1015852655     0.7254527398     -0.8535313102
C     -3.129435537     -1.2164009232     -2.1547129521
C     -1.4534598542     -2.8632109014     -1.6080346073
C     0.0117647882     -2.9655744295     -1.7399504835
C     -2.2047747778     -2.2205065733     -2.5861371503
C     1.6519769593     -1.2307480129     -2.3294731651
C     0.667178988     -2.2218265388     -2.7307238049
C     1.4053394974     1.2484540963     -2.3577211486
C     1.342325171     -0.002295144     -3.0598059722
C     -0.0835756861     3.0882475883     -1.6585826915
C     -1.5421840376     2.9252712303     -1.5218368874
C     0.3529251985     2.1853984416     -2.6736757242
C     -2.9650908294     1.1328403359     -2.2425816083
C     -2.9795261612     -0.0538989076     -3.0397116099
C     -2.0067923833     2.1242828609     -2.5647771643
C     -0.8350000449     1.7656608188     -3.4123304756
C     -1.5146169098     -1.678227574     -3.7591094805
C     -0.1259165007     -1.6370379361     -3.7814904243
C     0.3317447828     -0.2674716136     -4.0121364305
C     -1.9990988604     -0.3176311027     -3.9929619692
C     -0.833861455     0.5630621333     -4.1112188493


