58

 C     1.0084549134     -0.0161504228     4.2331202908
C     2.1992725394     -0.2757572063     3.5935190535
C     2.1720175012     -1.6465601958     3.059591997
C     0.1527941426     -1.230334694     4.0030176246
C     0.8457574259     -2.1542658718     3.145217864
C     -1.082409249     -0.7861174467     3.6444638219
C     0.2383160667     1.1507324194     3.8907788741
C     -1.1306950707     0.6853878813     3.7096753241
C     0.7602887723     2.0444887091     2.929216338
C     2.7033234095     0.5679250383     2.5271131162
C     1.9870265439     1.7179108951     2.2114447022
C     2.8831799621     -1.6657680327     1.8516903238
C     3.1564443562     -0.2839858479     1.4419968773
C     2.4625033768     -2.5889504306     0.8935273893
C     0.1964853162     -2.6494981443     1.9235728875
C     1.069200447     -3.055089342     0.9021737376
C     -1.7446352642     -1.2048164442     2.4181494974
C     -1.1394827949     -2.1149419873     1.5140930461
C     -1.9208085173     1.1280910039     2.6748424482
C     -2.4242432449     -0.0620853946     1.9192624578
C     -0.1285194912     2.6469221745     1.9624510946
C     -1.5002921062     2.2656027745     1.8938257886
C     1.8104181827     2.1049343044     0.8117251011
C     0.5735887314     2.816817864     0.7081175692
C     3.0124867481     0.0909917931     0.0712173284
C     2.2797306054     1.3241712745     -0.2753100876
C     2.7893166149     -2.3152702561     -0.4356712076
C     3.0037492636     -0.9852377127     -0.8777293764
C     0.6351061255     -3.1443356995     -0.4816986051
C     1.7634460462     -2.8790337225     -1.2970184374
C     -1.5346042818     -2.0346435271     0.0977999658
C     -0.6713904953     -2.6771089734     -0.8974975
C     -2.8299611045     0.0387278702     0.5895618257
C     -2.4662144805     -1.0070305427     -0.3642445464
C     -2.1546682194     2.4466239626     0.6722915185
C     -3.0516666769     1.3934918069     0.1206550074
C     -0.0944151859     2.9843564466     -0.5270685682
C     -1.5304013755     3.0811744342     -0.4381749013
C     1.6201965427     1.4776311508     -1.5887667556
C     0.5138101701     2.411782353     -1.7356442356
C     2.3515646906     -0.8332508498     -2.1685113837
C     1.647328843     -2.0880298554     -2.4405488816
C     1.7594765158     0.3814974434     -2.5756801246
C     -0.8016411794     -2.3270990499     -2.2598785998
C     0.3980194655     -2.0694810731     -3.06021087
C     -2.6538281284     -0.7203682891     -1.8107642928
C     -1.8390923793     -1.4308520281     -2.7493600385
C     -3.2293505264     1.6380904943     -1.2139487871
C     -2.3342455015     2.7644300231     -1.5735965211
C     -3.0886061958     0.614875236     -2.2169801712
C     -0.3419364015     2.3132588668     -2.9196818566
C     -1.7839886249     2.4909914061     -2.7828763754
C     -2.4508868163     1.2675137936     -3.32785551
C     0.7973368022     0.2691780902     -3.6665800249
C     0.1193788057     -0.9889283893     -3.8925007022
C     -1.3126049429     -0.7650112281     -3.9182280667
C     -0.1678455457     1.2751143166     -3.8471319783
C     -1.5015850864     0.6072888016     -4.070954435


