58

 C     1.5516369039     0.0616370235     4.2062522926
C     0.7297679819     -1.1017439551     3.9793123374
C     1.4597642597     -2.0453293815     3.2366561359
C     2.679239579     -0.0794859226     3.3123416058
C     2.6955702432     -1.3815042368     2.7591783107
C     2.7226440046     1.0229688373     2.3945437452
C     0.8134765845     1.1586296675     3.7005403979
C     1.5701515217     1.8521538775     2.6880004323
C     -0.5717161659     -0.690810699     3.4508024607
C     -0.5089737742     0.7461748645     3.296194717
C     -1.2689505302     -1.4720395474     2.4993734839
C     0.8560061983     -2.7016413753     2.1533016708
C     -0.5574653236     -2.6178207252     1.9298794301
C     2.7629719206     -1.5864152218     1.3638586061
C     1.7206916306     -2.5404712223     0.9976748092
C     3.0673855716     0.8323415446     1.0212448288
C     3.0312896118     -0.5134110503     0.4377681412
C     2.7298346912     1.9345116072     0.1826680679
C     0.8972728988     2.6073632341     1.688280949
C     1.6392816342     2.8423192569     0.509440455
C     -1.2252747339     1.4216753395     2.2631027638
C     -0.565433236     2.5298466774     1.5854961264
C     -2.2761612419     -0.7898706575     1.6728576012
C     -2.2724579567     0.6663385013     1.5893843974
C     -2.840979012     -1.5114344114     0.5784363839
C     -0.9741382289     -3.1136861214     0.6823013065
C     -2.2199663677     -2.709048419     0.1431538861
C     1.2454125707     -2.6903333278     -0.3232471076
C     -0.0727161425     -3.2204768878     -0.4439534044
C     2.6367355544     -0.6897025195     -0.9593192208
C     1.7829403584     -1.8188799973     -1.3713598283
C     2.6893992724     1.7568893832     -1.2031414479
C     2.6043090472     0.4749145196     -1.788617797
C     1.0032126783     3.2608729132     -0.7395672204
C     1.6923978182     2.6354860304     -1.8161543838
C     -1.1540304712     3.0261939768     0.393180012
C     -0.3807153612     3.3464533146     -0.7946506056
C     -2.8917023076     1.2728674273     0.4480681768
C     -2.3630099885     2.4631019793     -0.0653061555
C     -3.3429157372     -0.8664099145     -0.6378777215
C     -3.3718394837     0.4994356245     -0.7034548053
C     -2.2105067782     -2.7882930856     -1.2989975015
C     -0.8497193896     -3.0493746226     -1.6590997788
C     -2.8890873129     -1.6490895332     -1.807201662
C     1.0330646089     -1.7215130734     -2.5717083061
C     -0.277238353     -2.3254810693     -2.7109086509
C     1.6880323556     0.6144120261     -2.912637261
C     1.0293504289     1.9335939003     -2.8285222582
C     0.9736372643     -0.4714252264     -3.3392375064
C     -1.0956138854     2.8287896876     -1.9749943803
C     -2.3733156758     2.414171341     -1.5346110676
C     -2.9675217449     1.2050630583     -1.9393814653
C     -0.409304452     2.0413711041     -2.976696251
C     -2.3951785996     -0.9780852503     -2.9428122456
C     -1.1220305912     -1.4146396668     -3.4621438578
C     -0.3647362513     -0.2878140709     -3.8453236318
C     -2.3912011085     0.4704743645     -2.9932522412
C     -1.1015770176     0.90618009     -3.5191157678


