58

 C     1.4623740231     -0.2886909002     4.4602343057
C     0.6370818873     -1.3622247067     4.3218482385
C     1.2055333973     -2.3327331983     3.3616301948
C     2.6266520835     -0.5054061191     3.5815378147
C     2.4784484628     -1.8016254605     2.9131355199
C     2.7387937348     0.6246959395     2.7802487923
C     0.7257403703     0.8903673933     3.9813118881
C     1.4997627316     1.4726710704     2.9987704521
C     -0.6788744671     -0.9344438606     3.8452904817
C     -0.6347661358     0.476269871     3.5824500278
C     0.2063080982     -2.6095621086     2.4234995035
C     -0.9919622501     -1.7869776077     2.7777766902
C     0.5074291093     -2.7588034858     1.0101062616
C     2.7692143471     -1.8807549888     1.5434316895
C     1.8337802437     -2.4628869376     0.602616705
C     3.2689121416     0.54014796     1.4552114893
C     3.3593871517     -0.7488895573     0.8469817755
C     2.9930572111     1.6477636581     0.5990385605
C     0.8982729547     2.1555377211     1.8723978101
C     1.7680963799     2.4867694958     0.8309463842
C     -1.2306372112     0.9804523503     2.3938491732
C     -0.5432598998     1.989352575     1.58817441
C     -1.8061624382     -1.3289001234     1.750243974
C     -2.0917777565     0.0839721911     1.6384000494
C     -0.5508020906     -2.6208562543     0.0492158663
C     -1.8239008644     -2.1073727497     0.5291958646
C     -0.2478913028     -2.3626922269     -1.3635883974
C     2.0705116837     -1.8954619769     -0.7211349176
C     3.0859345613     -0.8885716704     -0.5718430107
C     1.0543137124     -1.7872927401     -1.693380057
C     3.1399981819     1.5259533956     -0.7752308644
C     3.0553435503     0.2235521555     -1.4053213829
C     1.2609892627     2.8964160418     -0.4309746697
C     2.148271478     2.3542654583     -1.419518346
C     -1.0729759918     2.3619314431     0.2973950678
C     -0.1400631591     2.8963179909     -0.70566204
C     -2.7820798756     0.5515576024     0.4687259646
C     -2.3491004248     1.7863492891     -0.1639226225
C     -2.8201492298     -1.7682302272     -0.3607254696
C     -3.4392736914     -0.4600909349     -0.3179132519
C     -1.3085674848     -2.1477837828     -2.2591781828
C     -2.6810364869     -2.1266192238     -1.7584978566
C     -1.2509479979     -1.2098139663     -3.3743237312
C     1.099650105     -0.693058088     -2.6846623943
C     2.0917004262     0.2991195589     -2.4827542947
C     1.6666330305     1.7040616248     -2.5679350132
C     -0.1173206611     -0.3346470888     -3.4598696635
C     -0.4793937416     2.7786482101     -2.0900627458
C     0.3938733763     2.0273756243     -2.9861779455
C     -0.3978289559     1.0655849393     -3.7171046764
C     -2.7605614567     1.9845982293     -1.5326326993
C     -1.7808839017     2.4224737662     -2.4653623914
C     -1.7477076962     1.5365783798     -3.6398456315
C     -3.9027563397     -0.2016977527     -1.656533374
C     -3.4586144074     -1.2986696533     -2.5449138513
C     -2.6073110522     -0.7201287055     -3.5708845598
C     -3.533315097     0.9914929406     -2.242172308
C     -2.8161416082     0.6706092109     -3.5415386159


