58

 C     1.5015746112     0.1187190666     3.9236944693
C     2.6614534548     -0.0668580175     3.1655573271
C     2.6000347723     -1.4021869635     2.58162957
C     0.6439403228     -1.0707725906     3.7340255142
C     1.3074242656     -1.9758242791     2.8677665634
C     -0.6857264119     -0.6522009172     3.4333108254
C     0.6839262431     1.2455901352     3.6808411792
C     -0.7011630842     0.7693429676     3.4751422764
C     0.9779133067     2.1782707054     2.683776229
C     3.0148349882     0.8554787     2.1272763217
C     2.2007240259     2.0340300127     1.9238711959
C     3.0544338788     -1.3168402782     1.2561608699
C     3.3878845128     0.0791287163     0.9501757723
C     2.4185919724     -2.092001958     0.2773125148
C     0.5591481938     -2.6406947201     1.8307877707
C     1.233084055     -2.8415049673     0.5904365841
C     -1.4837212718     -1.3221206408     2.449703355
C     -0.8970598344     -2.4577077233     1.7625823999
C     -2.4870877463     -0.5201506308     1.7444468903
C     -1.2827379978     1.5011717169     2.4397737974
C     -0.2892796762     2.4311347296     1.9391559015
C     -2.2393983718     0.9071555263     1.5706181526
C     -0.3277883186     2.8581621706     0.6158868928
C     2.1901753801     2.5745563462     0.6270483131
C     0.9654371177     3.1824852579     0.0336685896
C     3.260629463     0.5798290606     -0.3601324365
C     2.8993428586     1.9746062084     -0.4544525865
C     2.3218129845     -1.6195528608     -1.0874755198
C     2.7828929661     -0.3255154579     -1.4524509676
C     0.5107409811     -3.0033244887     -0.6579727891
C     1.1554091674     -2.2132539199     -1.68583604
C     -1.5706339667     -2.9428713654     0.5967950329
C     -0.8466334785     -3.1630400076     -0.6657056299
C     -3.2662619736     -1.1759744846     0.750455392
C     -2.8176319688     -2.442166293     0.2378672296
C     -3.8001344834     -0.4468466099     -0.3358299613
C     -2.462899431     1.5446630075     0.2806121398
C     -1.4482997436     2.4464809093     -0.2616740548
C     -3.3535025124     0.8688232799     -0.6286105954
C     -1.2366596367     2.4819166725     -1.7048721981
C     1.1255612258     3.2583846027     -1.3339656022
C     2.3323589686     2.493625782     -1.6595292676
C     0.06195413     2.8226453505     -2.2157091263
C     2.1465222121     0.2282768583     -2.6036209576
C     2.0102235151     1.6592532573     -2.7085449132
C     0.6626294394     1.9635935924     -3.1741602668
C     0.3834272419     -1.5697129598     -2.6960540825
C     0.9493689946     -0.3545938564     -3.1749608162
C     0.0538284291     0.7416132193     -3.5636911777
C     -1.6643453829     -2.6805189429     -1.7803974943
C     -2.9529724113     -2.4233826005     -1.2288798657
C     -3.6543466716     -1.2669687695     -1.5721835941
C     -1.0835485214     -1.794317306     -2.7593626697
C     -3.118649652     0.9308464407     -2.0442091139
C     -1.9987052437     1.5771985515     -2.5411852768
C     -1.3054914688     0.6070687704     -3.4169458082
C     -3.1708785885     -0.4405523677     -2.5793682979
C     -1.9117258311     -0.6925956371     -3.2025979701


