58

 C     1.4855302796     0.0441928225     4.190865845
C     0.676724191     -1.1509713136     3.9353578068
C     1.4466249864     -2.0409058512     3.2037999225
C     2.6889380268     -0.046803377     3.3462489839
C     2.6814196295     -1.3028758517     2.7682626894
C     2.7146960066     1.0753592737     2.4371716257
C     0.7648957384     1.1111983343     3.6960150688
C     1.561086966     1.8855463064     2.7657501395
C     -0.600401529     -0.7655647222     3.3667802483
C     -0.5640322631     0.6721683945     3.2245346214
C     -1.2044518114     -1.5272891107     2.3340686917
C     0.9222625302     -2.723553608     2.08307628
C     -0.4545170319     -2.6314642665     1.7269182348
C     2.8290491003     -1.5238038737     1.3585913179
C     1.9002460025     -2.5861040121     1.0115234348
C     3.0325853208     0.9029717792     1.0401047497
C     3.0361505599     -0.4479487447     0.4466857517
C     2.6571039502     1.9801234638     0.2146919248
C     0.9288193821     2.6855441218     1.811493627
C     1.7390342302     2.9905845571     0.6759254356
C     -1.2021201504     1.347390114     2.1692097266
C     -0.5377537054     2.5395664113     1.5930893508
C     -2.2058342323     -0.8392985847     1.5277211446
C     -2.1800465757     0.6001349692     1.3945425832
C     -2.8353783562     -1.6107161789     0.5065875025
C     -0.8308704951     -3.0762877302     0.392388262
C     -2.1447848811     -2.7679081885     -0.0572318334
C     1.5096027268     -2.7588326618     -0.2916914621
C     0.1773934103     -3.2342685384     -0.6085207201
C     2.5986308249     -0.6213906957     -0.9529033106
C     1.9507071773     -1.8431031487     -1.3023838184
C     2.455763652     1.8480437252     -1.2397663609
C     2.3144678628     0.5325754532     -1.8045446821
C     1.1611417809     3.58486615     -0.4724097014
C     1.6594488303     2.9178368094     -1.6836956185
C     -1.0611144781     3.0625143324     0.4058293336
C     -0.2082733266     3.7023657282     -0.5709269447
C     -2.7000557743     1.1804816953     0.1503736607
C     -2.0750913162     2.3396858618     -0.3454893422
C     -3.637317506     -1.0154757847     -0.5197299821
C     -3.3589988409     0.352417157     -0.8143305663
C     -2.459790471     -2.7591498363     -1.4456059573
C     -3.4971952539     -1.793011633     -1.7156064264
C     -0.0889041503     -2.8592326035     -1.9690917407
C     0.9827650522     -1.9493543551     -2.3779511763
C     -1.3967243723     -2.6450497572     -2.4144784014
C     1.3660575847     0.4037567779     -2.8756367371
C     0.6900173983     -0.8376040763     -3.143037988
C     0.5483100706     2.7163923889     -2.5622973056
C     -0.6174057145     3.2488378963     -1.8994221031
C     -1.769400471     2.4706242405     -1.7759126171
C     0.4166304078     1.4609524331     -3.1757978694
C     -2.9965218491     0.4299080612     -2.2317472074
C     -2.9677591983     -0.9258690556     -2.69745796
C     -1.705744297     -1.4585417575     -3.2152697288
C     -0.6978721431     -0.5612347184     -3.5433857149
C     -2.011884947     1.3511675285     -2.6608064818
C     -0.8858585182     0.8664072688     -3.4104782152


