58

 C     1.5195031144     -0.2943526236     4.2632964808
C     0.6917657282     -1.3770921971     4.1707387166
C     1.1655774613     -2.2928001087     3.1216038347
C     2.5557293765     -0.4356019454     3.2364308129
C     2.33032531     -1.6589091587     2.4891031089
C     2.571132474     0.7453703793     2.4995443297
C     0.7264932275     0.8971518789     3.9462787171
C     1.3754488318     1.5635604484     2.9209572057
C     -0.6837136736     -0.9721241576     3.8982007683
C     -0.6510454835     0.4706514904     3.6733988875
C     0.0601376484     -2.5627185527     2.3258331206
C     -1.1094730295     -1.766009375     2.8232982428
C     0.1918442236     -2.7814077799     0.9212472798
C     2.4502715237     -1.67135183     1.0822172265
C     1.4902473278     -2.4932950702     0.329784845
C     2.9541858391     0.7446822212     1.1402603698
C     2.9777653382     -0.4854462239     0.3874093398
C     2.6430128039     1.9607629754     0.444256326
C     0.6364377701     2.2696139114     1.9049689626
C     1.3806918845     2.6689259621     0.7873551476
C     -1.3838435992     1.0175144548     2.6024377334
C     -0.7848960545     2.0516025563     1.7392873373
C     -2.0553406699     -1.2879032797     1.8999215323
C     -2.3505826919     0.1370599486     1.9500428829
C     -1.0185343032     -2.7392247256     0.1226878449
C     -2.2010577995     -1.99141514     0.6340784627
C     -0.8733821008     -2.841107381     -1.275115675
C     1.5644705817     -2.4688277375     -1.0768866805
C     0.422621988     -2.7901359486     -1.8279206172
C     2.9481318134     -0.3978056311     -1.0845719052
C     2.2890952691     -1.4240590373     -1.8016166586
C     2.8556969375     2.0796769807     -0.9071971332
C     2.9988997487     0.9078031122     -1.7263254129
C     0.7768559731     3.1094297958     -0.4335616272
C     1.7563602029     2.891509072     -1.4688260526
C     -1.4058170332     2.4138357205     0.4701298205
C     -0.5975442449     2.875384757     -0.6720687572
C     -3.1308362496     0.675401482     0.926897204
C     -2.6859080905     1.8605556827     0.1874662578
C     -3.1353798272     -1.4856179222     -0.2831984028
C     -3.7166891805     -0.1925078785     -0.0313070787
C     -1.7611070565     -2.1353972023     -2.2174948787
C     -2.899955652     -1.5299619764     -1.7460781113
C     0.3910108091     -1.95266703     -3.0206448377
C     1.5440139352     -1.1484244302     -3.0310409781
C     -0.9252091297     -1.4755784413     -3.220492098
C     2.2445611534     1.1627366819     -2.9189413143
C     1.4153041843     2.3594316126     -2.6770244263
C     1.3890723734     0.1985466789     -3.4539807871
C     -0.9842926174     2.4555921117     -2.0498495207
C     -1.1320687103     -0.0649540309     -3.4955687421
C     0.0457487109     2.061618391     -2.970014123
C     0.025889377     0.7568694163     -3.5934474304
C     -3.1855617559     1.759719367     -1.1536820737
C     -3.8795735005     0.5196230257     -1.262402863
C     -3.2938021344     -0.248022996     -2.298386618
C     -2.2270764538     1.8016865267     -2.2228088168
C     -2.315611929     0.5484031399     -2.9786791678


