58

 C     1.0969573662     0.0714910354     4.0670966541
C     2.2382213315     -0.1734893185     3.348801307
C     2.232506348     -1.5708772537     2.8633486512
C     0.2611134265     -1.1539189174     3.9429156451
C     0.915223446     -2.0786926543     3.0393899696
C     -1.0064797687     -0.731897456     3.6651599918
C     0.2917797954     1.2167196946     3.7359733088
C     -1.0606068303     0.7410497657     3.7119638619
C     0.7162152791     2.1302439183     2.6965652948
C     2.6863160351     0.6704305798     2.2656315742
C     1.937493462     1.8083182055     1.8850979171
C     2.8809539143     -1.6066725096     1.6244316858
C     3.2424344427     -0.2325024111     1.2533361694
C     2.3576499125     -2.4520026747     0.636863368
C     0.2040712941     -2.5988317314     1.8927651218
C     1.0116052918     -2.9450096889     0.774978067
C     -1.7375544862     -1.1683578406     2.4944766587
C     -1.1664548759     -2.1096468845     1.5938488615
C     -1.9769905684     1.1669494024     2.7512386158
C     -2.4437373202     -0.0127543495     1.9973784848
C     -0.3323049704     2.8244118399     2.0373633712
C     -1.6976404076     2.341006753     2.0501135875
C     -0.14007275     3.408246345     0.736924806
C     1.9863628963     2.1976066029     0.4498451614
C     0.960423869     3.0143331526     -0.1010298492
C     3.2428111416     0.116589637     -0.0790544556
C     2.6369874649     1.3569896481     -0.4974407466
C     2.5639038875     -2.148822781     -0.7612148345
C     3.0143436421     -0.8766470477     -1.11965007
C     0.4535183571     -3.0854985469     -0.5524854065
C     1.4738325888     -2.7222329921     -1.5124114545
C     -1.6828681103     -2.1131335142     0.2283151778
C     -0.9097194122     -2.7890350486     -0.8268219343
C     -2.8379646933     0.0913874188     0.6580809696
C     -2.6423254785     -1.0938245519     -0.1747580434
C     -2.2449978491     2.5178230678     0.7295947464
C     -1.3276711716     3.3631679882     -0.0091609263
C     -2.8710771892     1.4440946491     0.055478462
C     0.4609158293     2.8380782783     -1.4436281002
C     -0.980599821     3.0766869477     -1.3743601616
C     2.1465813882     1.1810649952     -1.8480494993
C     2.4196732546     -0.1860763522     -2.2511897149
C     0.9845565737     1.8507183971     -2.3282466707
C     1.1258997409     -2.1936961138     -2.7592473995
C     1.5779663037     -0.8475191559     -3.1276077592
C     -1.2421731091     -2.5804630955     -2.2183305919
C     -0.2045481138     -2.3319352619     -3.1863543857
C     -2.9606093709     -0.9553625501     -1.572002829
C     -2.3378392131     -1.7434185029     -2.5543554486
C     -2.868046093     1.5191593535     -1.3842106614
C     -1.8190163937     2.287150496     -2.1086679414
C     -3.0798318904     0.3796736041     -2.1217354145
C     0.0903314994     1.1697729237     -3.3022444469
C     0.4459627211     -0.1545266906     -3.7461493506
C     -0.5672273028     -1.1495940423     -3.955889995
C     -1.9122524192     -0.8661257702     -3.6846696558
C     -1.3241176108     1.4606283005     -3.2067892829
C     -2.2818852737     0.4287726876     -3.3792204704


