58

 C     1.530088766     0.1031440288     4.2053143051
C     0.7592674012     -1.0765420433     4.0853550022
C     1.5609908094     -2.0204720525     3.3855059157
C     2.6954163317     0.0152319973     3.2892452691
C     2.769927578     -1.2850713306     2.8494884953
C     2.6003981659     1.0808626231     2.3248182588
C     0.7660000321     1.2186634291     3.82522511
C     1.4924194205     1.9089045714     2.7985483671
C     -0.5429044489     -0.6979453115     3.535172956
C     -0.5690952568     0.7724389511     3.4852810384
C     -1.1168349655     -1.4223725023     2.4642773963
C     1.0406756407     -2.7534095885     2.3475585785
C     -0.3652591122     -2.5983802463     1.9470398053
C     2.8775668717     -1.5779637497     1.4632071053
C     2.0468587586     -2.7425721188     1.2476755735
C     2.712463348     0.8311361424     0.9111296329
C     2.9041154362     -0.5488219747     0.4575477795
C     2.0891502858     1.7922415168     -0.0241471833
C     0.76437485     2.6424926523     1.8871506005
C     1.2195033601     2.7764145179     0.5196473152
C     -1.30352399     1.443740671     2.5000207583
C     -0.6632095123     2.5853381109     1.8728371075
C     -2.0812224153     -0.7471151109     1.5676051616
C     -2.2280963766     0.688990407     1.6613815491
C     -2.4734188117     -1.3987299403     0.3112247742
C     -0.6833904825     -3.1123537858     0.6908667898
C     -1.7476226028     -2.5384417313     -0.129886369
C     1.6907759146     -3.1104806158     -0.0025159544
C     0.3430270759     -3.6140284337     -0.2101980509
C     2.5037043449     -0.9283354984     -0.9077399861
C     2.0352874831     -2.2573387426     -1.1270509213
C     1.9257388514     1.4819942     -1.4476255676
C     2.1326252967     0.0981638094     -1.8972963585
C     1.0654761454     2.3353964711     -2.2267173354
C     0.1118994235     3.3062626745     -0.2226614528
C     -1.0862858235     3.1029730147     0.6028580555
C     0.0541668403     3.1576565109     -1.5813369898
C     -2.8435038086     1.4041773462     0.5748576424
C     -2.2462153211     2.6544127391     0.0171021107
C     -3.0923358334     -0.6443746028     -0.7321892652
C     -3.3693585354     0.7314423513     -0.5139749414
C     -2.7147043177     -0.7744960642     -2.127635689
C     -1.3799962878     -2.6811020712     -1.4976598264
C     -0.0408331285     -3.2782956424     -1.498323304
C     1.0218244265     -2.5283852867     -2.1291021103
C     -1.7362395654     -1.7283956071     -2.4945022793
C     1.4348705849     -0.3289994624     -3.0739890709
C     0.7103929132     -1.5831038801     -3.0666687758
C     -0.6928693959     -1.3083402856     -3.4388835416
C     0.4469956318     1.8615171681     -3.4222699483
C     0.6199710013     0.5645605228     -3.8270256354
C     -0.7233599009     -0.0387946346     -4.0012386877
C     -1.2477097615     2.9480131087     -2.2439879516
C     -2.379863725     2.6423051354     -1.4283903376
C     -3.1338914866     1.4813255237     -1.7552152083
C     -2.7466667342     0.5723006976     -2.754535826
C     -1.0055890302     2.1704147957     -3.3898510318
C     -1.7119723692     0.9521466155     -3.655322894


