58

 C     1.3647748722     0.1659633988     4.0619455757
C     2.4921586718     -0.0043130404     3.2925305701
C     2.4559447634     -1.3607895682     2.7027403881
C     0.5004773099     -1.036952324     3.80170149
C     1.1943739595     -1.9822066837     2.9829088476
C     -0.7673859319     -0.572019322     3.4301726499
C     0.5698457193     1.3273060274     3.9095788935
C     -0.7471719072     0.8721073103     3.565279138
C     0.9230870587     2.3425279256     2.9627363331
C     2.8300786471     0.9309387339     2.2418917895
C     2.0920385202     2.1611742529     2.1185740765
C     2.9131018803     -1.2632531691     1.3914321061
C     3.1107424793     0.1521227591     1.0618743994
C     2.3657649233     -2.1183524403     0.4274672581
C     0.4908948457     -2.6693543924     1.9535639774
C     1.2283002448     -2.9319911369     0.7480644882
C     -1.4960868357     -1.1769974687     2.3563829523
C     -0.9418670937     -2.3902152625     1.7694772588
C     -2.3340351494     -0.2994235852     1.5326008302
C     -1.3002847906     1.7118494445     2.5602974793
C     -0.3198909686     2.7469100946     2.3097107339
C     -2.0841202767     1.1530632773     1.5158289709
C     -0.2993577341     3.336865969     1.0609406182
C     2.0532653727     2.7208820847     0.800415043
C     0.9547111766     3.5091028058     0.3957560116
C     2.8381217161     0.607714268     -0.2771765414
C     2.4476469477     1.9570868851     -0.3889384769
C     2.2841607283     -1.7141160846     -0.9556494668
C     2.4365922103     -0.3539653012     -1.3364616672
C     0.5772860178     -3.2516224022     -0.4989157729
C     1.3013954448     -2.5683525505     -1.576884112
C     -1.5616530441     -2.8759364458     0.5886795024
C     -0.7952449959     -3.3763229811     -0.5667208496
C     -2.9398343591     -0.8578935936     0.3922677553
C     -2.6718012293     -2.2062114741     0.0490996557
C     -3.158733625     -0.1204784763     -0.8570980018
C     -2.1682118172     1.8739394231     0.2322530998
C     -1.2822658716     2.9683692976     0.0540151287
C     -2.6987722678     1.2036307804     -0.97470792
C     0.7410268872     3.3542804013     -1.0167310457
C     1.6463443039     2.389657119     -1.5197185988
C     -0.6552903606     3.1902898443     -1.2589460516
C     1.6938318246     0.1077475383     -2.5243951758
C     1.2434347171     1.503531678     -2.5709435044
C     0.6602899079     -2.1773595442     -2.7221368894
C     0.944417212     -0.8601704404     -3.2805464668
C     -1.4985167549     -3.0055860348     -1.7930338989
C     -2.6772324074     -2.3237777636     -1.4012399006
C     -3.0502021115     -1.0761344013     -1.9650751101
C     -0.7674835076     -2.4901672641     -2.905460883
C     -0.233895177     -0.4838802018     -3.9924218885
C     -2.4425568779     -0.680633315     -3.1846635028
C     -1.3143523845     -1.4402409195     -3.658637743
C     -2.2169767357     1.6135113932     -2.2896069264
C     -1.041083611     2.4740398038     -2.3548783464
C     -0.0342715371     1.7961575556     -3.1732349892
C     -2.1179178809     0.698131003     -3.3453991266
C     -0.7376111287     0.7998165029     -3.8805641749


