58

 C     1.155261224     -0.0304672237     3.8739073463
C     2.2780380711     -0.3462743996     3.1694668955
C     2.2443228278     -1.776722767     2.8167259527
C     0.3180665601     -1.2742043451     3.9244741165
C     0.9100672698     -2.2507663979     3.070856541
C     -0.9733152902     -0.8741288685     3.7181918442
C     0.320659001     1.0728849042     3.46782702
C     -1.0184000032     0.5933672272     3.5926202513
C     0.6477347749     1.8534110653     2.3127459617
C     2.637801424     0.381808399     1.9765397804
C     1.8596309824     1.4945540476     1.5443219232
C     2.8309896814     -1.9136217144     1.5725130608
C     3.1397179835     -0.5692746714     1.0213842523
C     2.2753184928     -2.8727231728     0.6960046088
C     0.1269105069     -2.7758806242     1.9405373026
C     0.8598086536     -3.2039539701     0.8271961873
C     -1.7971203737     -1.3947545445     2.6572093365
C     -1.2447661068     -2.265405956     1.6806177762
C     -2.0469983932     0.9581040947     2.7219794914
C     -2.6453862625     -0.2944195894     2.2472243429
C     -0.4693585923     2.4967970806     1.6096105749
C     -1.8519422516     2.0454921517     1.8189885667
C     -0.1806762608     3.1205537518     0.3829105645
C     1.9618556518     1.842245901     0.1372778898
C     1.0667776536     2.8609968221     -0.3215785607
C     3.1045006697     -0.3315471049     -0.3720700504
C     2.5553933184     0.9396890508     -0.8424552316
C     2.5627668917     -2.7409021986     -0.6577411097
C     3.0462060496     -1.5075917308     -1.2288406228
C     0.3092888961     -3.2349975109     -0.5488712598
C     1.4133072948     -3.1890011112     -1.4415036467
C     -1.7327510638     -2.1401236547     0.2745264324
C     -0.8956461081     -2.5494132098     -0.8654255432
C     -3.2449546276     -0.3139270379     1.016125081
C     -2.7809458061     -1.2390664795     0.0016665482
C     -2.765080019     2.1048922323     0.7119425014
C     -3.4879258752     0.9380561268     0.3786570929
C     -1.1926644914     3.3953818204     -0.6459803416
C     -2.4304518437     2.7683874443     -0.5411623726
C     0.8601538073     3.0990939866     -1.6928458337
C     -0.5241133617     3.441244386     -1.9153492038
C     2.1026069996     1.0400549628     -2.2441240385
C     1.2738003148     2.1203997567     -2.6583477348
C     2.4355838796     -1.4032101509     -2.499439383
C     1.3668757224     -2.4172140272     -2.5876855992
C     1.9174679756     -0.19605759     -2.9745981082
C     -0.9880575148     -1.8280439174     -2.1585146435
C     0.1840977836     -1.7605190329     -2.9818428367
C     0.5910872048     -0.4759510723     -3.5393817747
C     -2.9092863739     -0.541171023     -1.2836775389
C     -3.4400593091     0.7523867334     -1.0493772953
C     -2.8997299819     1.9165240435     -1.6557406242
C     -1.954044655     -0.739018733     -2.3311406589
C     -0.9676692503     2.6331651183     -2.9796720757
C     0.1369380325     1.8942688474     -3.5191725678
C     -0.3055399698     0.5490410233     -3.6945307088
C     -2.0911858831     1.7378541857     -2.7822285269
C     -1.6549659002     0.3996986559     -3.1507513517


