58

 C     1.1442894032     -0.0604485391     3.8619644042
C     2.2675613185     -0.3985555891     3.1671655085
C     2.174557837     -1.8010492009     2.6914397696
C     0.2765492645     -1.2734025742     3.8483233102
C     0.8741267369     -2.2835258867     2.9712241835
C     -1.0040855538     -0.8617875001     3.6688358575
C     0.3306344176     1.0797913237     3.4495585422
C     -1.0243450072     0.6156586049     3.5343696919
C     0.7321275558     1.9128560584     2.3705978786
C     2.7555526407     0.4171226992     2.0987331117
C     2.0589736588     1.6351249274     1.7740973893
C     2.7234223977     -1.8225272792     1.3973848145
C     3.1836784027     -0.4661270039     1.0453252641
C     2.0755388491     -2.5702955056     0.4170004517
C     0.0842073089     -2.8743768248     1.9217028007
C     0.7788603799     -3.1451583881     0.6964920231
C     -1.8616174518     -1.428780625     2.6587404352
C     -1.3602493326     -2.5063793961     1.8072982696
C     -1.9392112341     0.9209457379     2.5549460948
C     -2.5737593975     -0.3488833596     2.0903847538
C     -0.3129978835     2.478468297     1.4870385293
C     -1.6696222556     1.9645175381     1.6137928324
C     0.0646492934     3.1068813831     0.2164278292
C     2.3591228874     2.1423770869     0.5027083798
C     1.430346468     3.0240842903     -0.2252200964
C     3.2420734762     -0.0374206664     -0.2956882988
C     3.0883648552     1.3749399946     -0.4638107807
C     2.1122471771     -2.1482310084     -0.972028409
C     2.7495245035     -0.9359039192     -1.3695161596
C     0.0932688875     -3.2333902167     -0.5692144643
C     0.9017482958     -2.5944190575     -1.5998295734
C     -2.0052401507     -2.6506357216     0.5691243494
C     -1.2852464107     -3.104391344     -0.6176157597
C     -3.1682972671     -0.4305202433     0.8035112161
C     -3.0039632268     -1.6750030967     0.0973393771
C     -2.5582620427     1.9989311099     0.4948227887
C     -3.2871160705     0.7714669875     0.0603379355
C     -0.9073268122     3.2059097588     -0.8386849707
C     -2.223315524     2.7186739424     -0.6415428818
C     -0.5657008322     2.905624002     -2.2295206332
C     1.7655553644     2.9903578264     -1.5908458334
C     2.7445240278     1.9133868977     -1.7430151187
C     0.7560300809     2.766429217     -2.5891601732
C     2.2687017656     -0.3364930033     -2.5777849304
C     2.3935120969     1.0883312992     -2.7916509771
C     1.1633487009     1.5972512105     -3.3798142103
C     0.2942554604     -1.8367947844     -2.6546011113
C     1.0125119447     -0.7175146473     -3.1399392216
C     0.3004406486     0.5181998507     -3.5520388791
C     -1.885104869     -2.4915713835     -1.7638944363
C     -2.9874764687     -1.6586510414     -1.3108909062
C     -1.1460415096     -1.7896593235     -2.7158045597
C     -3.2738040326     0.7567463407     -1.3803020516
C     -2.629862619     1.9463778239     -1.8202980023
C     -1.5631495826     1.9317486374     -2.7190518526
C     -1.1260695292     0.657514001     -3.2969718537
C     -2.9878570346     -0.4553780201     -2.0542592215
C     -1.8505840373     -0.502441717     -2.9676924259


