58

 C     1.2709493669     -0.0401219987     4.6130124126
C     0.5570000119     -1.1601480738     4.1681398289
C     1.4622739683     -2.0292520576     3.459864312
C     2.6067421478     -0.0756086428     3.9464372176
C     2.7257740006     -1.2735728325     3.2352247138
C     2.7784221018     1.129060646     3.2333008609
C     0.6020699849     1.1236076925     4.1094788512
C     1.5224640518     1.9125986065     3.4021825375
C     -0.6540436768     -0.7169734919     3.4563830122
C     -0.6102073539     0.7282664859     3.397802485
C     -1.1522191792     -1.440658794     2.3616163906
C     1.0664211842     -2.6043685957     2.2761633977
C     -0.3224589308     -2.5520331486     1.860364039
C     2.9658626649     -1.2822708886     1.8237619484
C     2.0643144592     -2.2483709392     1.2449744625
C     3.0828027153     1.1461277549     1.8510331523
C     3.1619999669     -0.076382985     1.06087927
C     1.1789450445     2.5194453477     2.1802884807
C     2.2823808665     2.2226138512     1.2824787677
C     -1.0289416903     1.3970374252     2.2180111873
C     -0.1473130168     2.4179365869     1.6348082648
C     -1.9937766806     -0.7544444855     1.3940508493
C     -1.9198528661     0.6875107637     1.3103944132
C     -2.4647890966     -1.4987672514     0.230430469
C     -0.5475689212     -3.0092468789     0.5830729566
C     -1.7369441901     -2.6895505698     -0.1470405649
C     1.7423760567     -2.2953006779     -0.1171474886
C     0.5624666845     -3.0553481296     -0.4042015406
C     2.751086213     -0.0619370457     -0.3654257459
C     2.1155112568     -1.2054924073     -1.0126516325
C     2.0845763321     2.2898536902     -0.0567308385
C     2.449474337     1.199258233     -0.9538563398
C     -0.3181762706     2.7539828338     0.2443000338
C     0.860510665     2.8329121795     -0.5571857438
C     -2.3877238737     1.3658549192     0.1041626621
C     -1.566400586     2.4449254785     -0.4463570588
C     -3.1311324101     -0.8156308611     -0.8017628829
C     -3.2180291578     0.6389288757     -0.7979042955
C     -3.029609141     -1.2348514939     -2.2046435267
C     -1.4719426984     -2.9424599677     -1.5202092909
C     -0.0040627794     -3.0125541566     -1.6546776424
C     -1.9871044842     -2.1590301379     -2.5386691116
C     1.3832835478     -1.0578981247     -2.2847748537
C     0.3734632341     -2.0304065194     -2.6132015146
C     -0.8409973499     -1.674173761     -3.3517648748
C     1.7049024172     1.3667040623     -2.1560380454
C     0.8193866463     2.5081522259     -1.9483358118
C     1.2091746767     0.2598707335     -2.9061265489
C     -1.6223427682     2.7067514614     -1.8503095253
C     -0.3667220461     2.633333168     -2.6178405993
C     -3.3979833958     1.0635024536     -2.1478128452
C     -3.2062207756     -0.1095485126     -3.0177513496
C     -2.606366788     2.0880211731     -2.6757251789
C     -0.9434093951     -0.4690305626     -4.0120521345
C     0.1117174224     0.5177523718     -3.8090085849
C     -0.5874712925     1.7767189619     -3.7491195267
C     -2.2439879863     0.2318806384     -4.0281142563
C     -1.9885532041     1.6128253815     -3.9361776137


