58

 C     1.5123514493     -0.0391511749     4.1365899619
C     0.7527713081     -1.1939244973     3.951061219
C     1.5677041878     -2.1556762328     3.2647533227
C     2.7070441863     -0.1377326803     3.2693190109
C     2.8023964939     -1.4408410952     2.7975593716
C     2.6544034966     0.9360214417     2.3337635205
C     0.7487247119     1.0829030539     3.6957175031
C     1.4775930137     1.7538263043     2.6838880482
C     -0.5595215558     -0.8066134909     3.3993897059
C     -0.5864504147     0.6578089638     3.3636912598
C     -1.1289246733     -1.5277630935     2.3348568764
C     1.0502800882     -2.8421066634     2.192231623
C     -0.3624503703     -2.680353188     1.7842398597
C     2.9533030573     -1.7102190748     1.4065952004
C     2.0733255074     -2.8235693936     1.1161660766
C     2.9148324114     0.7044725786     0.94174856
C     3.0676558445     -0.6621409653     0.4306717935
C     2.4088702534     1.70230329     0.0552567995
C     0.7713379074     2.4975996672     1.7054000698
C     1.444969493     2.6764180519     0.4600814961
C     -1.3131003153     1.3383598535     2.3847319556
C     -0.6732016132     2.4780757496     1.7097623386
C     -2.1271347681     -0.8505461168     1.4894798017
C     -2.3180562668     0.5786593844     1.6469258256
C     -2.5116011588     -1.4498239779     0.2140054739
C     -0.6775146864     -3.1432857297     0.5137918074
C     -1.7469117869     -2.5378653892     -0.2871660007
C     1.713818178     -3.107101955     -0.1614911498
C     0.3609854951     -3.5702393466     -0.4087131235
C     2.659645452     -0.9527106088     -0.9604583234
C     2.1003984273     -2.2278921895     -1.2503767219
C     2.2423442809     1.4676434069     -1.369728178
C     2.3220385439     0.1448889643     -1.8859793595
C     0.7367680334     3.1218137752     -0.712905474
C     1.286022778     2.4266357972     -1.8664790358
C     -1.3373472371     3.0439719437     0.5877318518
C     -0.6172483089     3.3942084041     -0.6493012135
C     -3.0680398802     1.2961548012     0.6686430422
C     -2.6128969882     2.6010333857     0.2263327729
C     -3.1676305675     -0.6593223805     -0.788193827
C     -3.5824370466     0.6481508053     -0.4755536592
C     -2.7473024919     -0.6808379183     -2.1927078058
C     -1.3602478131     -2.5868089835     -1.6544463303
C     -0.0166178232     -3.1541727245     -1.6755538976
C     1.0642624337     -2.3867971748     -2.2656981931
C     -1.7206219024     -1.5661743743     -2.5905294666
C     1.4885358059     -0.1203844006     -3.0343738191
C     0.7380385874     -1.3660187842     -3.1172846274
C     -0.6693449287     -1.0588009613     -3.4608732782
C     0.4513173841     2.1260419517     -2.9515809832
C     0.6387001249     0.8704750765     -3.5596290908
C     -0.6917756445     0.2891620098     -3.8177009184
C     -1.5032998619     3.0965093878     -1.7837001848
C     -2.7564020975     2.6741595292     -1.2213022432
C     -3.3738128673     1.4995457383     -1.6535538761
C     -2.7973958727     0.7007782674     -2.6787867564
C     -0.9954218664     2.4135343695     -2.8950130209
C     -1.687728137     1.2177185829     -3.3953056203


