58

 C     1.4138867269     -0.0307584106     3.7812173941
C     2.5903606145     -0.2125669011     3.0676385543
C     2.6146686381     -1.5653239379     2.5205791517
C     0.5944038286     -1.2303703542     3.5393379879
C     1.3403224306     -2.1719442735     2.7605031275
C     -0.6754395708     -0.8107872759     3.1220923915
C     0.6054619191     1.1294935128     3.5568481696
C     -0.7347555755     0.6481710485     3.2842357284
C     1.1060041092     2.1811731799     2.7649709883
C     2.9643768893     0.7153575328     2.0255930809
C     2.2833811804     1.9348299927     1.9394116222
C     3.0856862197     -1.4822290591     1.1917375082
C     3.1948798495     -0.062390272     0.8230799081
C     2.6295884584     -2.3957643054     0.2722784284
C     0.6913990205     -2.9235241553     1.7350662312
C     1.5368806277     -3.2874610217     0.6291147102
C     -1.3659343181     -1.4717561873     2.0341706385
C     -0.7345335833     -2.6443892827     1.4429311488
C     -2.3463925993     -0.6890341636     1.2723601419
C     -1.5810065096     1.377790402     2.4758702756
C     -2.4481835588     0.7107837264     1.5396212588
C     0.1995494202     2.9800394312     1.9711946169
C     -1.1597225425     2.6461393651     1.9005799384
C     2.0547994178     2.5185618507     0.6442590951
C     0.8626931896     3.3418523204     0.7313686429
C     2.7712931545     0.3873897944     -0.4581711119
C     2.3081942637     1.7710524254     -0.5518764988
C     2.3979693902     -1.9955087415     -1.1142591446
C     2.3253285459     -0.6058570971     -1.4610745906
C     0.9671744252     -3.7238781075     -0.5890627447
C     1.5079207553     -2.9364691299     -1.6769280328
C     -1.2663457332     -3.1160526191     0.1947377144
C     -0.420201566     -3.750001409     -0.7526445699
C     -2.7961110382     -1.1427499686     -0.0471165626
C     -2.2666650726     -2.3480761775     -0.5499069469
C     -3.2633217692     -0.1665963695     -1.0224141153
C     -2.7837465155     1.6802233096     0.5056412176
C     -1.9111404588     2.8471093116     0.6806648389
C     -3.1857581927     1.276838897     -0.7442174797
C     0.1259030694     3.6396631832     -0.4094440708
C     -1.3265263526     3.4371444224     -0.4367535012
C     1.5800410443     2.150707001     -1.7188623296
C     0.620156058     3.1832607646     -1.6622807937
C     1.3830263229     -0.2189589888     -2.5266937931
C     1.0956379726     1.153611773     -2.6749234566
C     0.4361166652     -2.5441575653     -2.5535143905
C     -0.7354639599     -3.1814617924     -2.063906461
C     -1.9436474086     -2.4652128626     -1.9735336572
C     0.3782637784     -1.1951543108     -3.0373437565
C     -2.9618496318     -0.3196928     -2.3822532583
C     -2.0959244037     -1.3648216921     -2.8130718245
C     -0.9191864907     -0.7205149793     -3.3804739148
C     -2.686106937     1.9645079031     -1.927871061
C     -1.6939429793     2.9656209644     -1.77526271
C     -0.4928057884     2.8359180319     -2.5237713115
C     -0.1731345375     1.6314979084     -3.2130105356
C     -2.4929105428     0.9560057812     -2.907195336
C     -1.2046103293     0.7087203877     -3.4592665106


