58

 C     1.5019179561     -0.0379196686     4.0825281784
C     0.722240826     -1.2686728621     3.8931359425
C     1.5244940589     -2.1851775588     3.2043061742
C     2.6530408774     -0.1237920439     3.2232138273
C     2.7484499626     -1.4456828035     2.7740144637
C     2.5780028262     0.9487376402     2.232935459
C     0.7263570938     1.0366725984     3.6465897843
C     1.4395648713     1.7593828309     2.6011494708
C     -0.545902939     -0.9195638088     3.3369378312
C     -0.5813402348     0.5594730033     3.285048171
C     -1.0956042423     -1.6346091701     2.2393753807
C     1.0404800197     -2.8783410467     2.0784896146
C     -0.3043407871     -2.7020458565     1.6127824242
C     2.9888100167     -1.7423504383     1.4197614968
C     2.1081655635     -2.8584575309     1.0707001101
C     2.8297985102     0.7034683284     0.8524083683
C     3.1572835632     -0.67592456     0.4509047302
C     2.2141930681     1.6083124305     -0.1280050231
C     0.7199510555     2.4791073609     1.6572189147
C     1.2952082065     2.6232623799     0.3225636436
C     -1.3333306497     1.2691791611     2.3511925941
C     -0.7446986528     2.4783997374     1.7713985157
C     -2.1354028015     -0.943116697     1.4557412716
C     -2.3260868011     0.5223474928     1.583368179
C     -2.5986148015     -1.5439385941     0.2798712162
C     -0.5929193874     -3.0735634268     0.222621028
C     -1.8210836867     -2.6103882632     -0.3576000989
C     1.8382375794     -3.1350318142     -0.242156358
C     0.4677188085     -3.3576757113     -0.688758722
C     2.9633071686     -1.0510229561     -0.907694906
C     2.4732147569     -2.329279671     -1.2351298141
C     2.0994704235     1.1830422495     -1.5476004224
C     2.4150108787     -0.1289766897     -1.8980679796
C     1.1650030373     1.8598603337     -2.4205919238
C     0.5139923337     3.3717504978     -0.6324192279
C     0.5559548665     3.0398411172     -2.0366811916
C     -1.4661271825     3.1484935539     0.7793435438
C     -0.8054349929     3.7700468656     -0.3254846229
C     -3.0474118871     1.232000529     0.5949808025
C     -2.6863241024     2.5678640421     0.2825683482
C     -3.2447675786     -0.7651787071     -0.7835201798
C     -3.4167154081     0.5989164402     -0.667275897
C     -1.9477662139     -2.4486132636     -1.7521279779
C     -2.7572580296     -1.2670308326     -2.0148762639
C     0.3851589044     -2.9144526985     -2.0814782139
C     1.5923936155     -2.2176479479     -2.3755003723
C     1.572933387     -0.8885533783     -2.8320581621
C     -0.8158802131     -2.405295906     -2.5918081174
C     0.203342448     1.0910004466     -3.2410355712
C     -2.1228748709     -0.4339550269     -2.9570889365
C     0.3436122881     -0.3193337528     -3.3294016536
C     -0.846544846     -1.0994643447     -3.2593643703
C     -0.8138867472     3.0348877874     -2.5464514078
C     -1.6372501621     3.5081122122     -1.5297153055
C     -2.7651755619     2.7561263272     -1.1455080612
C     -3.0775478274     1.4960536081     -1.7643079507
C     -1.0626226782     1.7633575705     -3.1735510829
C     -2.244395686     0.9953605054     -2.8398896906


