58

 C     1.2599718722     0.4074553938     4.1007116451
C     0.4792545687     -0.7608684972     3.8690075658
C     1.1560243132     -1.602103154     2.9084431439
C     2.3934129703     0.3579891413     3.2774902974
C     2.3246016212     -0.8638107569     2.4674026386
C     2.5345548027     1.609268202     2.6014931134
C     0.4774157336     1.5508742244     3.650612531
C     1.2567551483     2.3308728488     2.7464570547
C     -0.841144279     -0.3512740225     3.5420837902
C     -0.8110454707     1.1094300175     3.2668973822
C     -1.5971872622     -1.183902096     2.7426158765
C     0.4138960332     -2.3734643751     1.9822418697
C     -1.0254992173     -2.3357406946     2.1114129431
C     0.963337216     -2.6124286058     0.6504756149
C     2.6948244896     -0.8593229976     1.0891547284
C     2.0370860998     -1.7746798308     0.1489529677
C     3.1535915359     1.605504103     1.3627775177
C     3.2623648092     0.3490124023     0.5691570351
C     2.8396685753     2.6401318579     0.471529741
C     0.6446868136     2.9242676519     1.6003442371
C     1.5742267778     3.2827522213     0.5383609901
C     -1.4444352455     1.5933889121     2.0808610659
C     -0.7253350692     2.5518678006     1.2398216338
C     -2.6059120713     -0.6285735291     1.8580670112
C     -2.5098952439     0.7535482121     1.4912847107
C     -1.8917704009     -2.6626751477     1.0124486387
C     -2.9323814124     -1.6451045755     0.8995506587
C     0.0916168065     -3.2562338791     -0.2967177101
C     -1.3772601941     -3.2406198137     -0.1291748277
C     0.3720927325     -3.2118909473     -1.6570759057
C     2.1062243347     -1.4911914468     -1.293787444
C     1.3083754642     -2.2722706786     -2.1762566817
C     3.1559817914     0.6873742571     -0.8131336009
C     3.0099488547     2.1219833951     -0.896383831
C     2.4810136509     -0.1534988781     -1.7507353846
C     1.125132381     3.4036560235     -0.8182205385
C     2.069918485     2.6862327437     -1.7124283262
C     -1.1399774337     2.6666633986     -0.1770284456
C     -0.1455898161     3.0245363091     -1.18715368
C     -2.9946208108     1.067135825     0.1908715617
C     -2.2431199807     1.9654851962     -0.6577155567
C     -3.4271711467     -1.3002937451     -0.3679473342
C     -3.5584923733     0.0706655482     -0.6452885221
C     -1.9741587802     -2.9886130463     -1.4366869066
C     -0.9026448017     -3.0741274592     -2.394285495
C     -2.9355212035     -1.9775411782     -1.586738135
C     0.6559012481     -1.6572918738     -3.3072191941
C     -0.7351875792     -2.1327981884     -3.3832678343
C     1.6596278507     0.4960559523     -2.7825216943
C     1.3337113587     1.883083554     -2.6181673586
C     -0.0464298393     2.2228965685     -2.4345381286
C     0.6545813306     -0.2754138799     -3.4382589426
C     -2.295234699     1.4166451885     -2.0419466039
C     -3.1161032795     0.2940721279     -2.0197192125
C     -2.7522702892     -0.9566994757     -2.6245235494
C     -1.6079837254     -0.9871597375     -3.4589826751
C     -1.0998862434     1.3809257995     -2.8437768895
C     -0.7535417512     0.1758176442     -3.5208475259


