58

 C     1.1657530275     -0.1269086709     4.1628975027
C     2.4049660171     -0.3604482436     3.5772429855
C     2.2945522815     -1.580888841     2.720113456
C     0.338818613     -1.3087727477     3.8933866697
C     0.9683964171     -2.0743181498     2.8249643358
C     -0.9486387885     -0.8738513404     3.6992445006
C     0.3995409983     1.0501528532     3.7853397468
C     -0.9586803419     0.6137406928     3.6718991558
C     0.8912799302     1.9641812868     2.7900314221
C     2.9916117634     0.6328629154     2.8080306852
C     2.2808717988     1.7963916141     2.4206409521
C     2.8863094208     -1.3208865087     1.4712652919
C     3.4608793517     0.0044641366     1.5410843766
C     2.2395174672     -1.7059933939     0.2599412968
C     0.2395531628     -2.4054249441     1.6209032462
C     0.9407584023     -2.3683581892     0.3317453041
C     -1.743195103     -1.3521518972     2.6395162529
C     -1.2110490305     -2.1874088679     1.5997789413
C     -1.8116083424     1.0083646599     2.6474402155
C     -2.5347202478     -0.2019735497     2.2312717781
C     -0.0473525975     2.4481165783     1.7253482409
C     -1.4093372894     1.9426545282     1.6210587457
C     0.5004604757     2.9801127444     0.5287387122
C     2.7171125101     2.0995542525     1.060944856
C     3.4072307845     0.9084375874     0.50468532
C     1.9265703463     2.8340361165     0.2277980119
C     2.6016100537     -0.9422908892     -0.9368460117
C     3.1064469985     0.4413214123     -0.8196344806
C     1.9468379337     -1.2969738185     -2.1117045427
C     0.1928905683     -2.5893587385     -0.8996492824
C     0.8607539884     -2.2600906931     -2.117211276
C     -1.9584308898     -2.2525873902     0.3467611413
C     -1.2882355058     -2.6501853066     -0.8991614015
C     -3.1859181284     -0.240682269     1.0653832522
C     -3.1370337082     -1.4437222284     0.2476977458
C     -2.0976413806     1.8774332004     0.3210495255
C     -3.1663904668     0.9254336031     0.1691891401
C     -0.1768221966     2.9125290211     -0.7426463531
C     -1.4423196261     2.2888344471     -0.9106977089
C     2.0641174238     2.6317645031     -1.1891975338
C     2.6429204268     1.4177547541     -1.7377134216
C     0.8107022258     2.8130082951     -1.7879404247
C     1.6878694378     -0.3106071632     -3.1737388671
C     1.8439377633     1.0443803994     -2.8636492358
C     0.6481946585     1.8806030469     -2.8667819163
C     0.1093562157     -2.0089798463     -3.3099745955
C     0.5423136069     -0.7069753742     -3.8641364993
C     -1.9832455266     -2.4319883842     -2.1383371619
C     -1.2542964523     -2.0966170438     -3.3358214711
C     -3.6285563271     -1.0352605202     -1.0099519724
C     -3.5404191074     0.4560734944     -1.0771631016
C     -3.14327744     -1.5630219406     -2.1692265945
C     -1.7481040794     1.6508669545     -2.2239976125
C     -0.623144784     1.3655079452     -3.1877993797
C     -0.6212267522     0.1177350852     -3.931777504
C     -1.7458064396     -0.7772708243     -3.833387615
C     -2.8776155902     0.8018318776     -2.2963948359
C     -2.8290679372     -0.4341502114     -3.0808519978


