58

 C     1.3218763432     -0.1535153914     3.3732916961
C     2.3339766173     -0.3630932064     2.4546903639
C     2.1066447733     -1.7203854033     1.8576546615
C     0.4569175605     -1.3291143146     3.3912201211
C     0.9394637325     -2.292056764     2.4456237193
C     -0.8645711859     -0.906499387     3.3816963604
C     0.4944579787     1.0222831865     3.3247020151
C     -0.8887873957     0.5710034739     3.2719791325
C     0.919697274     2.0858863357     2.543681314
C     2.8196049704     0.7307840574     1.661653898
C     2.1590272175     1.9941473467     1.7869011807
C     3.3943933072     0.3896063221     0.392513636
C     2.4554513274     -1.9849193724     0.4960284589
C     3.1402207239     -0.9458336492     -0.2174415197
C     1.65847486     -2.9080650567     -0.2421360617
C     0.0008299671     -3.0543970811     1.6380508717
C     0.4444938039     -3.4525730939     0.3376990468
C     -1.8158768065     -1.7037028417     2.6799957886
C     -1.4001932703     -2.8023003914     1.8307296567
C     -2.88909416     -1.0265913417     2.0714919949
C     -1.8194969147     1.2099426341     2.4227528216
C     -2.8616387837     0.3641011088     1.8522976937
C     -0.0424066637     2.8460646339     1.7660748548
C     -1.3968902931     2.401257991     1.6615212081
C     2.0190430506     2.8667448567     0.6351467733
C     0.6678259684     3.3961827956     0.6329007388
C     3.4023394543     1.3253236879     -0.6383312494
C     2.6278016663     2.5261608347     -0.5779537718
C     2.9294017771     -0.7677340635     -1.6162562982
C     3.0983076385     0.627727362     -1.8872543
C     1.3974728442     -2.6748587446     -1.6522442252
C     1.9023075967     -1.5171479245     -2.3041975291
C     -0.5015852909     -3.6027718745     -0.7264415077
C     0.0677266669     -3.1278622098     -1.9281594025
C     -2.3261939369     -2.8285715102     0.683058672
C     -3.201932699     -1.7175449396     0.8140980122
C     -1.851390408     -3.1149466358     -0.5956875807
C     -3.296440329     0.549643164     0.4769312951
C     -3.3719389778     -0.7716913323     -0.1964466947
C     -2.0630661931     2.677884198     0.4153526867
C     -2.9015739385     1.6469937352     -0.2208520124
C     0.0008071008     3.6034999075     -0.5854651338
C     -1.3780922242     3.30317294     -0.6314287716
C     1.8711949855     2.6014005991     -1.8353551546
C     2.1540693202     1.3614935521     -2.5986072243
C     0.5980583372     3.123808448     -1.8415712245
C     0.9989132693     -0.7709537433     -3.1489632629
C     1.0914316185     0.6517433902     -3.2376236071
C     -0.8834726371     -2.2468856485     -2.5451005977
C     -2.0863381536     -2.1949984096     -1.695069092
C     -2.7671160153     -0.9622649625     -1.494788488
C     -0.4274184429     -1.1039443729     -3.1690052924
C     -2.5454450588     1.5322417156     -1.6408985955
C     -1.6743191453     2.6018238808     -1.8977472568
C     -0.4714939238     2.4520937947     -2.6142805402
C     -0.2398432413     1.2163282438     -3.2378444563
C     -2.3195483797     0.2347314161     -2.2330690204
C     -1.1860673027     0.1311480547     -3.0895187812


