58

 C     1.094787088     -0.0302578318     3.9555041702
C     2.2753773876     -0.378625763     3.3667596611
C     2.1874441741     -1.7820254689     2.8732640351
C     0.2249067771     -1.2313424029     3.9067351286
C     0.8393516816     -2.2133431695     3.0280696858
C     -1.040505792     -0.8052716759     3.6419546015
C     0.3287842699     1.1030772908     3.4396131801
C     -1.0233262658     0.6712263871     3.4448418679
C     0.7975439372     1.8674153846     2.329738152
C     2.8764339063     0.4308190133     2.3594793413
C     2.1920315429     1.6152009832     1.8885704242
C     2.8503827544     -1.816718903     1.6457608923
C     3.457389501     -0.489585895     1.3966929383
C     2.2363815165     -2.4769294257     0.5649705715
C     0.1045295546     -2.7025151434     1.8749073727
C     0.8719633751     -2.903538317     0.6849613263
C     -1.8503253055     -1.3716060837     2.6115925242
C     -1.3156296631     -2.3187803998     1.6878411324
C     -1.9232233206     0.9930006082     2.444252317
C     -2.6296992133     -0.2622095294     2.1007545874
C     -0.1911113443     2.3557471002     1.3411531972
C     -1.5708369464     1.901318325     1.3992642278
C     0.2825468397     2.8889938539     0.056405962
C     2.5866128845     2.0741238956     0.605765698
C     1.652720703     2.7584785812     -0.2878684322
C     3.6884464039     -0.0735469049     0.1019770802
C     3.4555204121     1.2919086675     -0.1998181509
C     2.4204714334     -1.9789245817     -0.7906652812
C     3.1746137678     -0.8462261536     -1.0472473854
C     0.2665820097     -2.8100538194     -0.6398916748
C     1.2060491802     -2.2289590626     -1.5406456412
C     -1.9474682923     -2.3816616043     0.3563160644
C     -1.1293004166     -2.6625337715     -0.8302158695
C     -3.2845308339     -0.3831462202     0.9312991287
C     -3.106543153     -1.5767239788     0.1307075966
C     -2.4412658439     1.8746851302     0.1965178839
C     -3.4010737346     0.7739510407     0.0332685693
C     -0.6466371922     3.0221654854     -1.044407613
C     -2.0134519765     2.4977763467     -0.9774865109
C     -0.21111019     2.8429627762     -2.3738187305
C     2.0278511636     2.4162613508     -1.6504747182
C     3.0046648522     1.3945564217     -1.5650049536
C     2.7359238139     0.1007081637     -2.0676007302
C     1.0564869179     2.2924145927     -2.6374419364
C     0.791902813     -1.3839253397     -2.620507024
C     1.5500547343     -0.1345236948     -2.8704321533
C     0.8385408351     1.0070466352     -3.3165624691
C     -1.518671262     -2.1700156959     -2.1226467143
C     -0.5719270856     -1.4607540693     -2.964186425
C     -3.5197161516     -1.1961489157     -1.1779039145
C     -3.7435123971     0.276828766     -1.2198656347
C     -2.7816376669     -1.5269637113     -2.292295981
C     -2.387206616     1.9754819165     -2.3083609041
C     -1.2220410029     2.073324342     -3.0935645838
C     -0.5814975732     0.9286813455     -3.6481407143
C     -1.2638647907     -0.3070977061     -3.5672695158
C     -3.1603740204     0.7964439636     -2.4197189263
C     -2.5998082101     -0.3206431187     -3.1248967098


