58

 C     1.4302385441     -0.0567961327     3.881990381
C     0.6089857736     -1.2093830985     3.5998229561
C     1.2382310601     -2.0175537763     2.649911007
C     2.5041413546     -0.0753814984     2.9181851201
C     2.478125766     -1.275638903     2.2039524637
C     2.487545947     1.1490200753     2.1436890562
C     0.6471269322     1.0564853114     3.5568118748
C     1.3047105491     1.8678616379     2.5564974251
C     -0.744987965     -0.7852272938     3.3063486995
C     -0.7160814587     0.6586821437     3.283324511
C     -1.5474835965     -1.4909129888     2.3728398643
C     0.4877272018     -2.7712974153     1.7010366756
C     -0.9546641834     -2.5462639201     1.5532551356
C     1.2522976174     -3.2695818206     0.6060962512
C     2.884309486     -1.3372567998     0.839047065
C     2.4921922238     -2.5276671436     0.1601373536
C     2.8804111906     1.1586021219     0.7802393166
C     3.1288551401     -0.1028127309     0.0845172604
C     2.4037660506     2.289158275     0.0437321652
C     0.5488264999     2.668352345     1.6475930702
C     1.2396423144     3.0618005742     0.4871794231
C     -1.5392160285     1.4189324106     2.3986087278
C     -0.9400903982     2.5484590371     1.6259946403
C     -2.649037142     -0.7342827739     1.8610967682
C     -2.655047847     0.7313382985     1.8880002658
C     -3.2741803778     -1.1146452046     0.6602902002
C     -1.5327692465     -2.800595179     0.2349112301
C     -2.6347292624     -2.0077481936     -0.2177117838
C     0.6375585289     -3.7525263817     -0.5516089535
C     -0.7166588704     -3.3067043655     -0.8097168834
C     2.5327154691     -2.618524945     -1.2332484637
C     1.4686457091     -3.4752611481     -1.6983216768
C     2.8951258449     -0.1510803067     -1.3576902422
C     2.5158757181     -1.3724566078     -1.9723767894
C     2.3444931671     2.2473950187     -1.3606038992
C     2.4180737089     1.0156924418     -2.0350766292
C     0.5130237284     3.5025745078     -0.6963696673
C     1.1962708901     3.0058906126     -1.8331566082
C     -1.6219116595     3.0075732216     0.494133905
C     -0.8903481167     3.4981004627     -0.6882432045
C     -3.3316729273     1.2020270115     0.6864700126
C     -3.7172894459     0.0657680689     -0.0658736504
C     -2.8405158808     2.3311801574     0.013182701
C     -2.631484219     -1.3659535046     -1.5356235883
C     -3.3172024599     -0.0859083454     -1.4159584638
C     -0.6791319448     -2.6300809028     -2.0852605697
C     0.6891596686     -2.684642342     -2.5502148552
C     1.3416612314     -1.4209012209     -2.8120885873
C     -1.5064027644     -1.5016238188     -2.3689141817
C     1.2632063254     0.964508738     -2.9364453744
C     0.5274943082     2.2146391292     -2.7987984706
C     0.5816399843     -0.2522036304     -3.1199301129
C     -0.9081256716     -0.2965567306     -3.0182165661
C     -1.5506088251     2.9719103237     -1.8312464758
C     -2.7424021106     2.2587780009     -1.4025886416
C     -2.8258948694     1.0298426552     -2.1111239279
C     -0.8757271563     2.1967628019     -2.8125501052
C     -1.5984135062     0.9161337442     -2.9199371286


