58

 C     1.4979509481     -0.0217553629     4.1845498475
C     0.7151555289     -1.1930398636     3.8520625334
C     1.5156840522     -2.1351325875     3.1908735669
C     2.6666868982     -0.1097427386     3.3154928411
C     2.7614212465     -1.4107657103     2.7925989797
C     2.6750427492     1.0066110595     2.4018056926
C     0.7528337415     1.0619668094     3.7025419112
C     1.5072311965     1.8095911807     2.729210086
C     -0.58563596     -0.8048567463     3.2987371086
C     -0.5749984415     0.6338187739     3.2744856633
C     -1.1645502617     -1.5158292665     2.2177081406
C     1.0130836315     -2.7709115568     2.053294548
C     -0.3867808928     -2.6408279831     1.6727102118
C     2.9535722355     -1.6358252743     1.4145514992
C     2.0142659556     -2.6672499285     0.9991177913
C     3.0144935367     0.8253291239     1.0227653963
C     3.1966668433     -0.5388510275     0.5003613017
C     2.4970305708     1.8115482101     0.1271316863
C     0.8174345165     2.5689801119     1.7651222063
C     1.4748027709     2.7435631288     0.5197668392
C     -1.2911451156     1.3563503502     2.3157115906
C     -0.6568655285     2.5453131107     1.7448995506
C     -2.1174671082     -0.8166823642     1.3479614588
C     -2.275419938     0.6223053352     1.5160181519
C     -2.5238734058     -1.4210355917     0.0788857664
C     -0.7083238083     -3.0971191732     0.4028107918
C     -1.8841859326     -2.6418780262     -0.3066362853
C     1.6679935785     -2.8834389054     -0.3404229116
C     0.3419696927     -3.4075920337     -0.5857831278
C     2.8774791807     -0.7797153872     -0.8609467863
C     2.2160167877     -1.9916337848     -1.3157975367
C     2.2773121271     1.5508594118     -1.2766621499
C     2.4708083397     0.2713451748     -1.7638443236
C     0.7510985601     3.1722435531     -0.6590601055
C     1.1878599876     2.3717856489     -1.7762411655
C     -1.3064506265     3.1815474548     0.6849307393
C     -0.5751889234     3.5624512603     -0.5411858431
C     -2.9776996539     1.3660745662     0.536693877
C     -2.5963398448     2.7303702054     0.2655348439
C     -3.0816512711     -0.5751953123     -1.0036511655
C     -3.3652775814     0.7791288124     -0.721452518
C     -2.7138508903     -0.8616300679     -2.3785134357
C     -1.6564592954     -2.9390123835     -1.6838275289
C     -0.2307184843     -3.2843860765     -1.8393487346
C     -1.9868429436     -2.0271736396     -2.6655979722
C     1.504218834     -1.7054598041     -2.5331022316
C     1.5660344937     -0.2684201352     -2.7644316756
C     0.3289257324     -2.4136501228     -2.847469157
C     -0.7550511874     -1.6895095949     -3.4319266523
C     0.2511762092     1.8625657319     -2.7194700955
C     -2.0632618387     0.1983462296     -3.1484582796
C     0.4457953525     0.4768019025     -3.2084701466
C     -0.740041744     -0.3004292472     -3.5566878562
C     -1.4510695301     3.3249433142     -1.6461664829
C     -2.7728112172     2.9894896451     -1.1282101602
C     -3.1861067246     1.8059119179     -1.7469328494
C     -1.086422722     2.4103060455     -2.6684270233
C     -2.2455544559     1.5092016175     -2.8096103807


