58

 C     1.7117463118     0.0469811186     4.2467228562
C     0.9092128295     -1.0622328169     4.357901696
C     1.3627969486     -2.1260749412     3.4767001411
C     2.6875689099     -0.2206630532     3.1863779171
C     2.4485059075     -1.6044950457     2.7045853314
C     2.526470939     0.7834803354     2.2317046211
C     0.8533895668     1.1491253956     3.8278444734
C     1.4316212739     1.6930409222     2.681812834
C     -0.4842903623     -0.7324234451     4.0219704497
C     -0.530637985     0.6691505737     3.6968073474
C     0.2068653686     -2.6020923173     2.7941401845
C     -0.9220774532     -1.6568378924     3.0645292996
C     0.3675291145     -3.08409689     1.5149540031
C     2.5271322634     -1.8908278588     1.3146013865
C     1.5988010197     -2.8576712798     0.8132070777
C     2.6919351607     0.5694277145     0.8083688877
C     2.8753550092     -0.8071314374     0.365473844
C     2.1954304127     1.575486076     -0.1016290321
C     0.6430092943     2.3456799098     1.7225076441
C     1.2327119844     2.5862959876     0.4130362182
C     -1.3062050193     1.1006169327     2.6103396641
C     -0.7913325892     2.2259859262     1.8366116759
C     -1.7790228788     -1.2614039741     1.9802429974
C     -2.1101838785     0.136141731     1.8400480989
C     -0.7019999712     -2.9995795379     0.5285819157
C     -1.8041553606     -2.1179047825     0.7784503315
C     1.298836494     -2.9762835618     -0.5924533502
C     -0.1403919666     -3.1273408495     -0.7771997938
C     2.7534004042     -1.0690834662     -1.0093964244
C     2.0351821435     -2.250724004     -1.5081812423
C     2.1954642646     1.3008767133     -1.531276695
C     2.5142587941     -0.0183345911     -1.9583874972
C     1.3259569491     2.063628622     -2.409572243
C     0.4499735064     3.3299138373     -0.4768810303
C     0.5590444599     3.109933271     -1.8959114524
C     -1.5703242621     2.7291110611     0.7777330342
C     -0.9639897136     3.5018461843     -0.2154903805
C     -2.7974956352     0.5900398594     0.626522497
C     -2.6516756882     1.9326825674     0.1846917624
C     -2.5083094332     -1.6787329584     -0.355545029
C     -3.1350091388     -0.3832005386     -0.377273104
C     -0.798887017     -2.6091872203     -1.9378506409
C     -2.0926010277     -2.0303128663     -1.7180934882
C     1.4311882324     -1.9077413545     -2.7526855137
C     1.8147936455     -0.5920414639     -3.0852057581
C     0.0095929596     -2.0431819583     -2.9853107833
C     0.5172725641     1.4039453515     -3.4544888114
C     0.7060231035     0.064961066     -3.7152713481
C     -0.4313440848     -0.8626505901     -3.704953211
C     -0.7703894363     3.0946203509     -2.486461069
C     -1.6880979499     3.2686999055     -1.4557486829
C     -2.7209401779     2.29629896     -1.2191427118
C     -0.8397932505     1.9708292796     -3.3865562477
C     -3.2308678966     -0.0016344296     -1.7439144052
C     -2.5663811225     -1.0115091135     -2.564502776
C     -1.7190578877     -0.345878539     -3.4864198176
C     -2.9007075591     1.2860313588     -2.1929561056
C     -1.9249010297     1.1064417962     -3.3077095251


