58

 C     1.1405310996     -0.1035761592     4.1006208896
C     2.267593059     -0.3482624805     3.3558602703
C     2.0992576184     -1.6326477224     2.6278760722
C     0.2260635431     -1.2551071456     3.867296826
C     0.7964772965     -2.1153332796     2.8182755427
C     -1.0421266767     -0.7710998267     3.7640868613
C     0.3737203941     1.1120692843     3.8913350653
C     -1.0073001845     0.7105565267     3.8074720361
C     0.8522764024     2.0508544767     2.9557706528
C     2.7901487519     0.6020805458     2.4144622335
C     2.1049402657     1.8187616685     2.2515142087
C     2.6280046654     -1.476655221     1.3408910451
C     3.1738960765     -0.1286624822     1.2208473652
C     1.9780204386     -2.1080535843     0.2295540758
C     -0.0042909388     -2.5237029324     1.6874660042
C     0.6268370174     -2.6380979628     0.3771375605
C     -1.899959723     -1.1912844834     2.6979033654
C     -1.4389070907     -2.1944229313     1.7454152046
C     -1.8478585888     1.1480111805     2.7901734747
C     -2.5523463232     -0.0306194327     2.2180467476
C     -0.0650149911     2.6209404566     1.9766402382
C     -1.412220142     2.1743836072     1.8665657704
C     1.9988563241     2.3800455029     0.9175221058
C     0.6725372694     2.913428615     0.7669610336
C     3.2464439328     0.477102122     -0.0461939377
C     2.6785988331     1.8297339841     -0.2059412146
C     2.4359709131     -1.6606641726     -1.0294220439
C     3.165639462     -0.4334263704     -1.1498817448
C     1.6563826842     -1.8726791795     -2.2521827221
C     -0.1998177043     -2.7832229753     -0.8414790511
C     0.3182473076     -2.3836059467     -2.1630491583
C     -2.1774222388     -2.2809741111     0.5743092309
C     -1.6128598081     -2.7749704163     -0.6630744153
C     -3.1448893671     -0.0053893067     0.9329453643
C     -3.1991724994     -1.2704385219     0.2390098109
C     -2.0348272796     2.198549391     0.5723626416
C     -3.0130587132     1.1743444288     0.1513711266
C     0.0361541895     2.9542516256     -0.5107797883
C     -1.3629141954     2.6464471973     -0.5787617611
C     2.16708617     2.1891644591     -1.4939560125
C     0.8356497271     2.6762107677     -1.6461184237
C     2.8833276275     0.0590433219     -2.4628410102
C     2.0083145594     -0.8729594007     -3.1752107038
C     2.4170105067     1.3468952501     -2.6380632199
C     0.2446619657     2.0453242747     -2.8537364645
C     0.9902670135     -0.0988876201     -3.8334975156
C     1.2328703196     1.3001538764     -3.4933042678
C     -0.5911816908     -1.8537400868     -3.1555580194
C     -0.2952320559     -0.5863804747     -3.8180270354
C     -2.4781234095     -2.3183961883     -1.7069300023
C     -3.3846970069     -1.3003673378     -1.1366132464
C     -1.983705565     -1.839809856     -2.8940742295
C     -3.013575478     1.1124173091     -1.2742085898
C     -1.9378549692     1.9606218099     -1.7478957589
C     -1.138690369     1.5998872659     -2.8516686308
C     -1.4239034078     0.3229179418     -3.5081962517
C     -3.281427855     -0.1148877361     -1.9398245828
C     -2.502407192     -0.4558715248     -3.0892030114


