58

 C     1.4390546442     0.1585688177     4.4106099193
C     0.5922544445     -1.0348281449     4.3420482185
C     1.3089032342     -2.0127025291     3.644006239
C     2.6266579215     -0.0978953539     3.6282278808
C     2.6022835025     -1.4499746284     3.2161171985
C     2.7474249985     0.9257012833     2.6100441838
C     0.7311222146     1.1559123716     3.7229133285
C     1.5226837444     1.731583764     2.641360948
C     -0.7032206676     -0.6605964265     3.8139098474
C     -0.6219539244     0.7448470511     3.436188199
C     -1.3683113837     -1.5467688427     2.9482570365
C     0.7429276305     -2.7218759819     2.5165508524
C     -0.6167911359     -2.6066941707     2.2768393695
C     2.7871087025     -1.8116093067     1.8488174066
C     1.6724820112     -2.6300268965     1.3847349047
C     3.2204249427     0.5720112207     1.356638225
C     3.2802770778     -0.8470322857     0.9531364312
C     2.8011671196     1.3179750406     0.2126524546
C     0.900196997     2.1977319445     1.4705410199
C     1.6677941801     2.1757019195     0.221498781
C     -1.2724195948     1.2324068778     2.2887955067
C     -0.5728420422     2.1292755315     1.3510044811
C     -2.2615830579     -1.0225543151     1.9797360142
C     -2.3265685761     0.3882722167     1.7403234187
C     -1.118346127     -2.7071755674     0.9210870323
C     -2.2941783539     -1.9062447401     0.8122828524
C     1.2083538102     -2.5837301895     0.0432261934
C     -0.2314280108     -2.7752321183     -0.1982124373
C     2.9574164248     -0.9266813562     -0.4244897045
C     2.9712017698     0.4429808121     -0.9282746149
C     1.9599582179     -1.8036086515     -0.9474282148
C     2.4377129416     0.7685300884     -2.1172444784
C     1.0415003582     2.5091846917     -1.0495181448
C     1.6579067139     1.9895581129     -2.2376017577
C     -1.2020806425     2.4780558628     0.1160216424
C     -0.3906569006     2.82143473     -1.1030941886
C     -2.9471976619     0.8012294762     0.5658842986
C     -2.5479956562     1.9922040431     -0.1027567919
C     -2.8013345886     -1.4797809747     -0.4257898339
C     -3.422575357     -0.1714248967     -0.4544241538
C     -0.7810301557     -2.4213151915     -1.4596259668
C     -2.1167425889     -1.9003815723     -1.6049686019
C     1.3641672198     -1.4687958707     -2.2474662967
C     1.8019903177     -0.2708178539     -2.9385891106
C     0.030201242     -1.8803443198     -2.5344596632
C     0.9295872808     1.836710351     -3.4365684649
C     0.978790926     0.3941338192     -3.8453848186
C     -1.0318698693     2.8158351532     -2.3819120001
C     -0.3551621811     2.2990020004     -3.5443415191
C     -3.0958060045     1.8969836091     -1.4215152907
C     -3.565059392     0.5043319906     -1.6443789881
C     -2.393589743     2.3033157898     -2.5106666986
C     -2.1855484606     -1.1310446688     -2.8338252802
C     -0.8404158846     -1.1446145585     -3.4297190029
C     -0.357558842     -0.0144479552     -4.12255089
C     -1.1787415753     1.1932256407     -4.1175268453
C     -2.9671628604     0.0353336842     -2.882919106
C     -2.4133793802     1.216161453     -3.5282010393


