58

 C     1.4573699889     0.0631412372     4.3388139967
C     0.6329781526     -1.1067936017     4.3848913288
C     1.2272844454     -2.1075843765     3.566221444
C     2.491027031     -0.1848281098     3.3440984794
C     2.3935457055     -1.5411783033     2.9210337966
C     2.458520869     0.8199586329     2.3441643466
C     0.64630619     1.0865656629     3.7796802921
C     1.280627656     1.6798766233     2.6427454104
C     -0.7362354994     -0.7378062206     4.0783393348
C     -0.7296183222     0.6583962242     3.6564066592
C     -1.5375900677     -1.6416904158     3.3581781861
C     0.4764013824     -2.8141200214     2.5558194843
C     -0.9018785167     -2.7103733715     2.5422537861
C     2.3479556814     -1.8565630988     1.5353965409
C     1.207742485     -2.7076234802     1.2718023076
C     2.7199145837     0.5092686901     0.9917348626
C     2.6799567004     -0.8772561759     0.5617502994
C     2.3874709252     1.5384176298     0.026340917
C     0.5319259493     2.1987822936     1.5839583703
C     1.2691538976     2.4340917996     0.338397729
C     -1.5101008014     1.1118800703     2.5467434157
C     -0.9205657002     1.9936685325     1.5420485537
C     -2.5470925626     -1.1097928754     2.5437862595
C     -2.5592302231     0.2429166302     2.0998580675
C     -1.6051149853     -2.7909197755     1.2630535583
C     -2.7320003896     -1.947024812     1.3580455708
C     0.562141227     -2.7116456672     0.0166732263
C     -0.8976067331     -2.8561726096     0.0053720323
C     2.3140178501     -1.1434188707     -0.8036543118
C     1.2272818495     -2.04756529     -1.1116714853
C     2.6712217108     1.2816133663     -1.3106428268
C     2.6628159259     -0.1257553201     -1.7444950749
C     2.1279084907     2.0740776775     -2.3974638108
C     0.5983090757     3.0275713437     -0.7153508883
C     1.0837073189     2.9780645099     -2.0983518536
C     -1.561321488     2.1656362523     0.2655583894
C     -0.8624851638     2.9131792946     -0.737627827
C     -3.0037264362     0.2489884616     0.7175567546
C     -3.1551469602     -1.1485353271     0.2872868017
C     -2.5938051068     1.223006979     -0.2014728528
C     -1.585647704     -2.367214694     -1.1308058499
C     -2.7194148117     -1.4896060775     -0.9818090735
C     0.5173350645     -1.8486474184     -2.3779397288
C     -0.9029687424     -1.9545026701     -2.3353414345
C     2.2199137048     -0.1656774293     -3.0628892961
C     1.9808097199     1.1936666083     -3.5320167375
C     1.073545903     -0.9756398209     -3.3967848058
C     0.8108211801     1.1800041114     -4.3059509101
C     0.2423627068     -0.1822469708     -4.240515301
C     -0.0674270641     3.0218518377     -2.9571517877
C     -1.2336259359     2.8515270146     -2.0833851838
C     -0.2186770946     2.1090329076     -4.0087902333
C     -2.6652719315     0.8946594746     -1.6430634905
C     -2.6480358804     -0.4876747341     -2.0047134531
C     -1.7115709052     -0.9490374899     -2.9989874265
C     -1.1411121544     -0.0513072732     -3.9156757654
C     -2.0853554971     1.7989394434     -2.5926414706
C     -1.4677467135     1.3394189923     -3.7788173124


