58

 C     1.4576317512     0.0415514797     4.414010429
C     0.6637683837     -1.1963757247     4.3915761502
C     1.4353761805     -2.2136052206     3.8450883682
C     2.6568374678     -0.1842863077     3.6439018284
C     2.7313030712     -1.5829699293     3.4015707186
C     2.6566131838     0.7268131031     2.5197346636
C     0.7064034809     1.0304068755     3.7834080557
C     1.4804270583     1.5737552262     2.6665827061
C     -0.6384635952     -0.8874023071     3.8194026305
C     -0.6166024642     0.5287097162     3.4768842406
C     -1.1882604669     -1.7494499373     2.8636695155
C     0.9355342847     -3.0097763517     2.7456516619
C     -0.4018067214     -2.8368992267     2.305227513
C     2.9834153865     -2.0407360458     2.1218922708
C     1.9582882647     -3.0328832755     1.738801911
C     2.9397824982     0.2752597817     1.1915146522
C     3.1588715321     -1.1467342499     1.0117244183
C     2.3907535272     1.0178947009     0.0662306509
C     0.8190901113     2.1336967959     1.5848591715
C     1.4217430078     2.0773424005     0.2620718797
C     -1.31079912     1.0460534151     2.3677552115
C     -0.6583028752     2.101646953     1.6040030818
C     -2.0246085     -1.2084772933     1.8047399641
C     -2.2132912367     0.185323122     1.6165482604
C     -0.7100507503     -2.8584877389     0.8890061527
C     -1.8523509018     -2.0007826954     0.6322324472
C     1.6664836125     -2.8634400234     0.3839784016
C     2.512788797     -1.7667879345     -0.1017985819
C     0.3118488697     -2.8670753106     -0.0964677898
C     2.3194987079     0.3811023708     -1.2306905392
C     2.1632633436     -1.0615983743     -1.246523989
C     1.8364961339     1.1142234549     -2.3478121915
C     0.7246489447     2.6992587766     -0.8637628826
C     1.058103701     2.3462241723     -2.1890066843
C     -1.335648484     2.6147892524     0.520814356
C     -0.6292177164     3.1697520898     -0.6495897793
C     -2.7747761651     0.6367638318     0.3665596863
C     -2.5493640608     2.0167116836     0.0373431989
C     -2.1824966413     -1.5289295161     -0.6553513253
C     -2.9252757354     -0.2798342447     -0.7535724549
C     0.0369207938     -2.2991865492     -1.4083762547
C     1.1141754976     -1.6108929683     -2.1026651263
C     -1.3130002484     -1.9167846129     -1.7615912979
C     1.3540429999     0.4414487755     -3.4709228141
C     0.8496786525     -0.9188669746     -3.3003425375
C     0.1248226725     2.4441756712     -3.3086002196
C     0.3394474431     1.2603190351     -4.1154903185
C     -1.5303440642     3.2546312222     -1.7076098745
C     -2.7545186408     2.5214525676     -1.27333734
C     -1.2151081949     2.8507529531     -3.0483221617
C     -3.1831681826     0.2589550608     -2.0708641984
C     -3.1531011304     1.7056809486     -2.2982895525
C     -2.3125590359     1.9899906184     -3.4787768996
C     -1.5402108504     -1.3104575351     -3.0356071048
C     -0.4443559727     -0.9251802162     -3.8559283822
C     -0.731370958     0.410742517     -4.4349904695
C     -2.5675925489     -0.3186417538     -3.1895971569
C     -2.0514140975     0.761113776     -4.0808963199


