58

 C     1.4938968558     0.1170926354     4.2931484198
C     0.6652097468     -1.0421182126     3.9896366368
C     1.3934838125     -1.9353527127     3.2131864841
C     2.6520809245     0.0234415937     3.4117299326
C     2.6793403584     -1.2670096111     2.8628919988
C     2.6743144749     1.1506283887     2.490694747
C     0.7544997724     1.2073028238     3.8238066082
C     1.5170267998     1.9595126072     2.8397700935
C     -0.6280158379     -0.6112882612     3.476992486
C     -0.6111648019     0.8250054127     3.4661492145
C     -1.2746089281     -1.2999220963     2.407642537
C     0.8577003071     -2.4848852516     2.0199258794
C     -0.5182246546     -2.2840605382     1.6471890873
C     2.9142838346     -1.4669444482     1.4973062188
C     1.8543564808     -2.3455735712     0.995011393
C     3.0291944191     0.9858737556     1.1166795843
C     3.2926775565     -0.3767244827     0.6495505711
C     2.4426106984     1.9192031474     0.1260794594
C     0.8109109497     2.6419350579     1.8658685145
C     1.3213224827     2.7155810564     0.5073352861
C     -1.3287107086     1.5527960177     2.4845031391
C     -0.6260382551     2.5959833839     1.798657599
C     -2.3638993035     -0.5938506851     1.7456843775
C     -2.4030213698     0.8648057654     1.7852124072
C     -2.9638367077     -1.2633254065     0.6454678503
C     -0.8877930364     -2.5767973658     0.2720430836
C     -2.1908170563     -2.2292448551     -0.1217821765
C     1.5473036137     -2.4577782749     -0.3853979858
C     0.1569234652     -2.7407528892     -0.7721814678
C     3.2155499918     -0.6542809394     -0.7400900833
C     2.4234760066     -1.785354762     -1.2664536909
C     2.5120160872     1.6212340584     -1.2616081025
C     3.0857275081     0.374278476     -1.6766806653
C     1.434898545     1.917637402     -2.1883398682
C     0.2276998832     2.9504811638     -0.3850638933
C     -0.9713837841     2.8976157592     0.4355060982
C     0.2180506146     2.4769078137     -1.7309009883
C     -2.9858708471     1.540166818     0.6647965967
C     -2.1661542351     2.4673365552     -0.0864515579
C     -3.7749787509     -0.5529467938     -0.2864898351
C     -3.7431687053     0.8314145583     -0.2971312902
C     -2.5492646691     -2.0807150954     -1.5359062537
C     -3.4892900618     -1.0365455411     -1.6458329108
C     -0.1850532181     -2.5691291441     -2.1266195264
C     -1.5491097681     -2.2134063995     -2.5204097316
C     1.9969106168     -1.4650755472     -2.6043997757
C     2.3839329923     -0.104145999     -2.8471109333
C     1.4065698321     0.8515542932     -3.1914789967
C     0.7398336095     -1.8928951889     -3.0396187619
C     -1.4603800868     -1.2160025476     -3.525874879
C     0.1797757061     0.4085225218     -3.7339202745
C     -0.0548360338     -0.9798628816     -3.8076240885
C     -1.0810539255     2.0497133015     -2.3435572509
C     -2.2835681627     2.1505117702     -1.5234864347
C     -3.3446889217     1.2539904709     -1.6614828573
C     -3.225779497     0.0917793133     -2.4923821781
C     -1.0853317983     1.0554638171     -3.348988389
C     -2.1355348312     0.0282197838     -3.3852014866


