58

 C     1.537453141     -0.2500565701     4.3271673507
C     0.6720866046     -1.363782168     4.3666672709
C     1.2072937671     -2.39571464     3.4778092206
C     2.6257499749     -0.4944101789     3.4613574408
C     2.4659226313     -1.8790412004     2.9690827746
C     2.6544685693     0.5740088066     2.4999231576
C     0.7980108643     0.9344981325     3.8797967497
C     1.5123993827     1.4849807076     2.7994270656
C     -0.6010107178     -0.9373956273     3.9170182217
C     -0.5513879344     0.525724451     3.6482398849
C     0.1967816365     -2.6653393751     2.5197431726
C     -0.945204981     -1.7719995435     2.8112106244
C     0.493514105     -2.94320493     1.1444084769
C     2.7902655212     -2.1135520548     1.6572192096
C     1.8835445585     -2.8660812616     0.7927968652
C     3.0229340305     0.3575222269     1.1472595361
C     3.3057314336     -1.0225004483     0.79793102
C     2.5420329114     1.2672410633     0.0958472322
C     0.831754134     2.1076154608     1.7368100299
C     1.5207474709     2.245332531     0.4522340241
C     -1.238289334     1.0347442009     2.5498795451
C     -0.6130034417     2.0480677083     1.7169426363
C     -1.751884394     -1.296915064     1.7692583799
C     -2.1410911393     0.115110036     1.823053377
C     -0.4984396565     -2.6442000677     0.1097945947
C     -1.7105021845     -1.9266663765     0.4515344098
C     -0.0645966391     -2.5642316968     -1.300130501
C     2.266249751     -2.6000128998     -0.5463702656
C     3.1483542166     -1.428593397     -0.5230850884
C     1.3514139991     -2.4086319754     -1.5611566099
C     2.5919425478     0.844507403     -1.3056408104
C     2.7672588987     -0.5574283182     -1.5645553329
C     1.7842050013     -1.2407311181     -2.3586466352
C     1.8338654907     1.5397237734     -2.2842430984
C     0.8155865058     2.9199340574     -0.5623706486
C     1.1125878696     2.6831216531     -1.9175738468
C     -1.3501969687     2.5522423813     0.5644784459
C     -0.642858062     3.1365094946     -0.4931831306
C     -2.8822938083     0.6217812455     0.7903341535
C     -2.6515616869     1.9698123928     0.2759741906
C     -2.5986698635     -1.4183762227     -0.5839646685
C     -3.3493108917     -0.2130351165     -0.311524846
C     -0.9261523808     -2.0520223076     -2.2678277986
C     -2.2753982401     -1.6592502049     -1.9618978633
C     0.8794664605     -0.5671927277     -3.1998723991
C     1.0018689802     0.848267207     -3.2978632338
C     -0.4384170103     -1.1598800884     -3.3520334402
C     -0.1048849084     2.7775155828     -2.7143509899
C     -1.17596585     3.0991390135     -1.8594602573
C     -0.1541319496     1.6643696833     -3.6078829147
C     -3.2010004224     2.0145248172     -1.0028137438
C     -3.7243613194     0.6727182777     -1.3447299664
C     -2.4559844217     2.5126990648     -2.1271771321
C     -2.6929415587     -0.7561769032     -2.9915312513
C     -1.5096543571     -0.3957434538     -3.7898405401
C     -1.420975369     1.0512721927     -3.8521035073
C     -3.3688909328     0.41779429     -2.6782119441
C     -2.5744300445     1.5713880714     -3.1931565862


