58

 C     1.6010096212     0.0483345149     3.9505706926
C     0.7726426602     -1.1005074203     3.7004194503
C     1.298157964     -1.8383841004     2.6187410145
C     2.5742629891     0.1311982425     2.9430073413
C     2.3932275951     -1.004664258     2.0612101503
C     2.5459135679     1.4597197777     2.3788223823
C     0.7861535722     1.2346535729     3.8684055902
C     1.4515574037     2.1742536286     3.0374260864
C     -0.5893881743     -0.6409014351     3.6148785263
C     -0.5423887219     0.8268328179     3.5271458149
C     -1.4462840415     -1.3284670887     2.8013621719
C     0.4175894418     -2.5592774185     1.7687659183
C     -0.98092485     -2.4815397829     2.0568229713
C     0.8261765987     -2.7851947439     0.3851353737
C     2.531014649     -0.866866823     0.6758930687
C     1.9008709921     -1.913430969     -0.1712209708
C     2.7976693305     1.6524080265     0.9977759561
C     2.8562797296     0.4736670248     0.1117607943
C     2.3211541161     2.9090069232     0.4507621235
C     0.6583321138     3.0311244309     2.2549400206
C     1.2292751312     3.5673429843     1.1079298067
C     -1.2886784175     1.479150091     2.4615119151
C     -0.7273760355     2.6470155215     1.9145977604
C     -2.4206379726     -0.6533933     1.9420385823
C     -2.2205274413     0.7093853464     1.6116005501
C     -1.9466099342     -2.7450515311     1.0351948418
C     -2.8688663948     -1.60739115     0.9783573936
C     -0.1220961459     -3.3560538492     -0.4870238809
C     -1.5450126185     -3.3720536751     -0.1397740566
C     -0.0343375328     -3.1651917375     -1.9346131481
C     1.985185235     -1.7655551039     -1.5550814613
C     1.021618703     -2.3958688523     -2.454839389
C     2.6699211245     0.6594531107     -1.2994336204
C     2.3477697437     -0.4646073785     -2.1198238833
C     2.0665730046     3.0242933139     -0.942760432
C     2.2156199084     1.9560603778     -1.8038185265
C     0.1655505683     3.7774446609     0.1024668123
C     -0.9952573229     3.0647556245     0.5332497893
C     0.6892552415     3.5719127677     -1.144161377
C     -2.4544580806     1.110122489     0.2096553082
C     -1.6951387422     2.2301954613     -0.3782401927
C     -3.3290068232     -1.1704090737     -0.2654216327
C     -3.0301313989     0.1769734385     -0.6711124205
C     -2.2808162415     -3.1002294188     -1.3433699887
C     -1.3397049796     -2.9987906257     -2.4658225447
C     -3.1548972676     -2.0236375243     -1.4083399141
C     -2.6408278368     0.1181548681     -2.105808743
C     -1.6735096624     -1.8446090976     -3.24549254
C     -2.7703039228     -1.1982202334     -2.5581315874
C     0.7242362853     -1.4590969722     -3.4775661619
C     1.5539827202     -0.2995873223     -3.2755053298
C     -0.6244742245     -1.0370302845     -3.7177726829
C     1.0511285225     1.9768978204     -2.7272945378
C     0.0180812941     2.774171959     -2.0966166466
C     -1.2245018034     2.1400692628     -1.7751630597
C     -1.5959232948     0.9829489326     -2.5965056054
C     0.7290984253     0.8604138091     -3.4360204763
C     -0.6572283506     0.4080503804     -3.5037133871


