58

 C     1.2337069221     -0.1535562226     3.6480619411
C     2.3755167191     -0.4258992327     2.9393854119
C     2.2971189262     -1.8003531129     2.40640459
C     0.3767049881     -1.3475780932     3.6275573565
C     1.0292210924     -2.3437209263     2.7937550002
C     -0.915150561     -0.9302920364     3.3420220841
C     0.4525516163     0.9956973856     3.2945900542
C     -0.9048341858     0.5554987185     3.2072550253
C     0.9733722874     1.9757716921     2.3660858775
C     2.8657253807     0.4548527581     1.9123692506
C     2.2388792043     1.6855657472     1.6249016504
C     2.7195402176     -1.7688815918     1.0779067929
C     3.2996332592     -0.4384587828     0.8383924094
C     1.94159091     -2.3913733944     0.0168469397
C     0.2770521261     -2.9738756142     1.8067641918
C     0.7551180345     -3.0419756202     0.4293720124
C     -1.7687969764     -1.7198341919     2.4863540038
C     -1.1606608018     -2.7839637384     1.7553912328
C     -2.8818425994     -1.0407057927     1.8665397524
C     -1.8295168731     1.2077198379     2.348214267
C     -2.8621052493     0.4456143788     1.7388391082
C     0.0047828368     2.7763122159     1.7229753773
C     -1.3863075306     2.380373397     1.6697015156
C     0.3131963648     3.4404162607     0.4883624625
C     2.4478467909     2.2348329245     0.2560672913
C     1.4958228165     3.1314439873     -0.284225449
C     3.4273041329     0.0156094015     -0.4252587806
C     3.1806159544     1.4338296035     -0.7119793451
C     2.029823096     -1.8513207359     -1.3474553612
C     2.9815574693     -0.7933978473     -1.5661104376
C     0.8612721569     -1.9169252523     -2.2241440963
C     -0.4025624446     -3.1069697276     -0.4391611997
C     -1.5947073075     -3.0789585593     0.4025033099
C     -0.3827623238     -2.5218662412     -1.7269655232
C     -3.4835268729     -1.5642977914     0.7314733187
C     -2.7940297566     -2.5583646326     -0.0745839301
C     -3.353527981     0.7820183133     0.4391333583
C     -3.8262901533     -0.4376324573     -0.1481289709
C     -1.8512597337     2.6721097104     0.3305064451
C     -0.8013999349     3.377837561     -0.3478480844
C     -2.6784887967     1.7707500708     -0.3736706674
C     1.0872133264     3.0669139471     -1.678666538
C     -0.366738304     3.02687635     -1.6815863138
C     2.9207829054     1.5222511915     -2.0806305527
C     2.8201492873     0.1306390296     -2.6128999028
C     1.8099392742     2.2698587195     -2.5823523106
C     0.7311651926     -0.9197388332     -3.2544357907
C     1.7126265894     0.0684603985     -3.4438035502
C     1.0749630429     1.4186230714     -3.4654281645
C     -2.2982303241     1.4308454718     -1.7789992797
C     -1.0839737783     2.0365505617     -2.3936300343
C     -0.543482445     -0.2073169545     -3.404284068
C     -0.3020822949     1.2383051203     -3.3248227585
C     -1.6596489841     -2.0147364259     -2.2075164388
C     -2.8132277563     -2.0872566727     -1.4275591241
C     -3.4441802629     -0.7526265757     -1.4267582431
C     -1.6863133567     -0.7183781173     -2.9022420172
C     -2.6591453119     0.144677349     -2.2325851285


