58

 C     1.6039293895     0.2097232395     4.1448825139
C     0.8417062275     -1.0084226427     4.2619793124
C     1.5427704258     -1.9944160461     3.5564411683
C     2.7008680168     0.0064539713     3.1841922065
C     2.6960823066     -1.3500650369     2.8522457688
C     2.5672534841     0.9702715529     2.1408923228
C     0.7831283722     1.2189598373     3.6502196102
C     1.4330139828     1.8367807358     2.5243251077
C     -0.5285868586     -0.7089055193     3.858221531
C     -0.5702150255     0.7030874885     3.4657712153
C     -1.2052073798     -1.6019493505     3.0361746436
C     0.892757527     -2.8539027512     2.6300995015
C     -0.5090846265     -2.771271737     2.472964438
C     2.6669277118     -1.7707229292     1.5017500488
C     1.6996852477     -2.8650504497     1.4091327444
C     2.6675387737     0.5993193381     0.7652837828
C     2.7303486328     -0.8150385922     0.4222246399
C     2.1558923229     1.5512473637     -0.223417552
C     0.6736617387     2.4369069152     1.5545956846
C     1.2792705919     2.5991027449     0.2404906751
C     -1.3391584466     1.1543357162     2.3816874412
C     -0.8024065893     2.26810317     1.5988935562
C     -2.1401047166     -1.1307427179     2.0299515019
C     -2.2545649592     0.2337592318     1.6893769788
C     -1.1103480076     -3.0645231157     1.203649241
C     -2.2122146739     -2.1357874272     0.9811486182
C     1.119950071     -3.1533246787     0.2017535284
C     -0.3151085453     -3.405070391     0.0953874697
C     2.2520401928     -1.2235866739     -0.897336414
C     1.5292811708     -2.4486508232     -0.9896247443
C     2.1335291466     1.1989725384     -1.6368470194
C     2.0749533579     -0.2309253893     -1.9625793179
C     1.539176211     2.1523542573     -2.5460923041
C     0.54402607     3.3798606816     -0.68020392
C     0.7899829935     3.2593212189     -2.0463441482
C     -1.5267479266     2.7394504815     0.5115905824
C     -0.904265787     3.5423183617     -0.4725534901
C     -2.7698556541     0.5854057261     0.3532148838
C     -2.522440614     1.8815457922     -0.1641726208
C     -2.609979784     -1.807564534     -0.2980407038
C     -2.9795350076     -0.4370684855     -0.6175970385
C     -0.7252723371     -3.0474264512     -1.2308680369
C     0.4618533443     -2.5976629671     -1.9468348259
C     -1.9347844942     -2.359877657     -1.4508460501
C     1.309430416     -0.6296917157     -3.1119290641
C     0.3614585354     -1.7157975021     -2.9930035867
C     0.8219507046     1.6905052496     -3.713913037
C     0.6742402774     0.3551691021     -3.9296527232
C     -0.5415948514     3.2704276091     -2.7292342578
C     -1.5371305319     3.2916787192     -1.7120192899
C     -2.4693466923     2.1775840374     -1.5648258044
C     -0.5498814369     2.2824988853     -3.6773379553
C     -2.7313585104     -0.2031345968     -2.0161688276
C     -2.0326775008     -1.3897049516     -2.5065154012
C     -0.9642185773     -1.2169358531     -3.4099788119
C     -0.7813354182     0.0388971629     -4.0015766781
C     -2.458157903     1.1058008364     -2.5362971194
C     -1.5211243779     1.1973789909     -3.6527299547


