58

 C     1.5062033408     -0.0841819466     4.0216208665
C     0.7012663363     -1.2516618908     3.8373590775
C     1.2606511032     -2.106190584     2.8612887874
C     2.4802259723     -0.1007696316     2.9965311913
C     2.3780903919     -1.3364106367     2.2676182533
C     2.3618923115     1.0830793442     2.1929122923
C     0.6387323414     1.0266056962     3.713853314
C     1.2202278586     1.8262053986     2.6873987549
C     -0.7010362209     -0.8643509744     3.7227400521
C     -0.7048734161     0.6066348927     3.5224362616
C     -1.554296895     -1.6451671611     2.9751309127
C     0.3964845239     -2.8661508651     2.0022727592
C     -1.0229883611     -2.7030344665     2.1001837262
C     0.9088068745     -3.2104831205     0.7344157412
C     2.6509249834     -1.402804193     0.8792951663
C     2.1421017808     -2.5712718558     0.2212887057
C     2.6673087125     1.071786838     0.7907817663
C     2.8464460747     -0.1771966036     0.0746038732
C     2.2162108896     2.1965395691     0.0869390909
C     0.4207293811     2.5820149143     1.7946607206
C     1.1462001897     3.0424940356     0.6609247319
C     -1.536738534     1.2302104517     2.5105974179
C     -0.998309889     2.3146707974     1.6638934218
C     -2.624148062     -0.9895118632     2.2775591749
C     -2.5581542918     0.4025474264     1.9713741505
C     -1.8101861473     -2.6853140884     0.8879312448
C     -2.7882084196     -1.6569395928     1.0414963682
C     0.0762061903     -3.4539569171     -0.4108166425
C     -1.2709492739     -2.9523590323     -0.4148730723
C     2.1647861376     -2.6642841986     -1.1594068161
C     0.9093783124     -3.287513679     -1.5622824353
C     2.6047468482     -0.2002395516     -1.3645052758
C     2.3480089358     -1.4841411655     -1.9759409602
C     2.0958262918     2.2241026019     -1.3389538555
C     2.1173992245     1.0004771192     -2.0764771745
C     0.4742463128     3.6395027618     -0.3822490381
C     1.1458514601     3.2593479022     -1.6495340962
C     -1.6513491961     2.6665710576     0.3988448792
C     -0.9304892163     3.4828198432     -0.5397005039
C     -2.9848557107     0.5806157313     0.580811032
C     -3.0717552502     -0.7282202254     -0.0072481944
C     -2.6097773659     1.701221171     -0.1734535882
C     -1.7367588011     -2.1504152075     -1.5707214359
C     -2.6237758559     -0.9903564121     -1.3210357828
C     0.4420983875     -2.6185743165     -2.6682030875
C     1.4078829007     -1.5691743491     -3.0333528395
C     -0.8630451422     -2.0363008841     -2.6925302089
C     1.1446106703     0.8791332579     -3.1904123365
C     0.6951254668     -0.4497294156     -3.4894276461
C     -0.727291421     -0.7881902618     -3.4396168321
C     0.2010056797     3.1258540333     -2.6192437054
C     -1.1262945861     3.3532793853     -1.9801345585
C     0.158026146     1.9094825438     -3.4049916592
C     -2.6575920357     1.4869968276     -1.6012908636
C     -2.5673926081     0.1657806164     -2.1506350514
C     -1.6474789175     0.2321813005     -3.2945195975
C     -1.9369727444     2.372318668     -2.4823208637
C     -1.2229836491     1.562420875     -3.4828855828


