58

 C     1.5554424441     0.0002440096     4.3330804699
C     0.6974970845     -1.1773448106     4.222066633
C     1.3666452827     -2.14894343     3.4812216871
C     2.6768388013     -0.2119769884     3.4413946428
C     2.616257727     -1.5339601051     2.9655668812
C     2.7074717414     0.8403535971     2.4436088749
C     0.8111126156     1.0339397471     3.7437106365
C     1.5475916206     1.6725501087     2.6744447933
C     -0.6275806137     -0.772816067     3.7581699266
C     -0.556593757     0.6473149797     3.4609989946
C     -1.3285582533     -1.6145564571     2.8805280325
C     0.7382848516     -2.8314310546     2.3850576122
C     -0.6343267378     -2.6951960052     2.1806556824
C     2.7085138666     -1.8382349613     1.5820374735
C     1.6151146453     -2.7242063631     1.2221428132
C     3.0871969567     0.5694783943     1.0973546488
C     3.1161944994     -0.8295983317     0.6379163624
C     2.6888687156     1.5483762147     0.1517895038
C     0.860610553     2.3064442163     1.6175267796
C     1.6053992315     2.4574935941     0.4200284284
C     -1.2558273668     1.2103369335     2.3650507187
C     -0.6062909185     2.207489     1.4997281174
C     -2.2365260659     -1.0377623189     1.946721127
C     -2.2928248224     0.3797903195     1.7662268028
C     -1.1843303839     -2.768838104     0.8454400235
C     -2.3073036968     -1.8894984838     0.7637930002
C     1.1028881118     -2.7837799609     -0.0993057725
C     -0.3494454735     -2.9103343221     -0.3073614269
C     2.8153024661     -1.0905727545     -0.7166328178
C     1.8623136499     -2.1068940914     -1.0994786459
C     2.6718057552     1.288192767     -1.2677418357
C     2.7276095121     -0.0335046705     -1.7053999421
C     0.984032234     2.8278570758     -0.8170939879
C     1.7234494838     2.189895531     -1.8850831175
C     -1.2370057742     2.6094449325     0.272486925
C     -0.4221435897     3.0254846964     -0.9072098089
C     -2.9191973982     0.8424622603     0.6002639097
C     -2.5447927398     2.0635835354     -0.0111821792
C     -2.8190617495     -1.4215621182     -0.4653234352
C     -3.3950176257     -0.0940491567     -0.4563094024
C     -0.9005359632     -2.5107328984     -1.5575641042
C     -2.1889703966     -1.8575405117     -1.666977724
C     1.2803859752     -1.7413526958     -2.3642352475
C     1.8575582849     -0.4767734949     -2.7860588218
C     -0.0701548491     -1.9979858278     -2.6215490314
C     1.0749361747     1.8358755909     -3.0700740299
C     1.0968745457     0.4291624638     -3.5090196813
C     -0.9774423619     2.931258873     -2.237461408
C     -0.2182996645     2.3511785791     -3.2849379777
C     -3.0546613684     2.0014920179     -1.3589022238
C     -3.526765353     0.617190047     -1.6278898074
C     -2.332818285     2.4270197966     -2.4275170907
C     -2.2074138406     -1.0347632182     -2.8650680793
C     -0.8586687054     -1.0814059035     -3.4303621332
C     -0.2568915559     0.0823070498     -3.9408242343
C     -1.0324517285     1.2978575532     -3.9381169539
C     -2.9319754293     0.1748452809     -2.8750211634
C     -2.3223203522     1.3466959404     -3.4593093674


