58

 C     1.3861089111     0.1753118021     4.2310675946
C     2.5701457329     0.1505725939     3.4922319152
C     2.5478378743     -1.0756378745     2.6763233768
C     0.5621360474     -0.9756249262     3.7795609818
C     1.2778683278     -1.7514210503     2.8407741534
C     -0.7364528312     -0.5090562666     3.4465017965
C     0.5551754698     1.319779012     4.2055860004
C     -0.7781017827     0.8966359129     3.753955984
C     0.9385676554     2.4300412911     3.4260857383
C     2.9392076638     1.2341406912     2.6198731021
C     2.0917328333     2.3846219772     2.5842419864
C     3.0597180937     -0.8297625342     1.4057631213
C     3.3309226162     0.6215488763     1.3509746551
C     2.5480911087     -1.5470873393     0.2792044401
C     0.6339448406     -2.3065159786     1.7088941934
C     1.4238402136     -2.4532756545     0.4947320888
C     -1.4079598493     -1.0205362795     2.2967365928
C     -0.7981618738     -2.0784770895     1.5304301676
C     -2.2982797231     -0.089956696     1.5726077149
C     -1.2440357755     1.7949238802     2.7572438698
C     -0.2102247159     2.7751016425     2.5771708536
C     -1.9770484078     1.3360209355     1.6333438215
C     1.6593689611     2.8921154866     1.2701755328
C     0.197206388     3.112137307     1.2855320497
C     3.0936565644     1.2527759917     0.1463756514
C     2.2283565643     2.4254386096     0.107878014
C     2.6785958874     -0.929139213     -1.0410110749
C     2.8152364707     0.4923404994     -1.0444602148
C     2.0018605688     -1.501550758     -2.1477266225
C     0.7732223323     -2.9753576327     -0.6461327477
C     1.2200564133     -2.6598587399     -1.9393388321
C     -1.4515229888     -2.5157848453     0.2921704851
C     -0.6858122747     -3.1145490962     -0.7233768985
C     -2.9731674212     -0.5515917148     0.4625751666
C     -2.6964293523     -1.8764949416     -0.0940730574
C     -3.3441455008     0.3150139135     -0.6316414954
C     -1.8430089476     2.0264575312     0.3640582608
C     -0.6184016171     2.794632337     0.164642178
C     -2.5840007415     1.5341318675     -0.7883574771
C     1.4469056591     2.3358024851     -1.1037182521
C     1.9539789398     1.2668653126     -1.908586561
C     0.038914179     2.651596685     -1.1333924215
C     1.2985146563     -0.7131184174     -3.1638429069
C     1.1727172398     0.6809827456     -2.951863083
C     0.0847715617     -2.6516745207     -2.8508478266
C     -1.0849226803     -3.0067628387     -2.1337792782
C     0.1580261226     -1.4863242029     -3.6608540827
C     -3.1491742174     -1.8819857557     -1.4139622452
C     -3.6206692571     -0.5304665026     -1.7477012035
C     -2.3047496122     -2.365379797     -2.485333336
C     -1.0603390534     -0.8318633728     -3.9994731388
C     -3.1198851906     -0.2134616673     -3.0113163333
C     -2.287395065     -1.358581914     -3.492302539
C     -2.0946092507     1.8230948128     -2.1080979559
C     -0.689865328     2.1832045786     -2.2263567034
C     -0.0942007992     1.3198003842     -3.2466644767
C     -2.4003582026     0.9714159374     -3.2110853386
C     -1.1337634174     0.6047925     -3.8514154238


