58

 C     1.5369123021     -0.1168644508     4.323206717
C     0.6650999406     -1.2826297182     4.0573360074
C     1.3765238646     -2.1812923952     3.26291601
C     2.6628765141     -0.2090572679     3.4103482407
C     2.6102331307     -1.4593411407     2.8108736558
C     2.6356868539     0.9323423653     2.5054192855
C     0.8201148679     1.004238194     3.9454665563
C     1.5343744667     1.7639818671     2.9195480174
C     -0.6264055081     -0.8534362968     3.6111526749
C     -0.563046616     0.62673333     3.6442233825
C     -1.2807277871     -1.4847725031     2.5129952167
C     0.790924239     -2.7765936789     2.134790064
C     -0.5806325844     -2.5484390364     1.7854448515
C     2.7531820601     -1.6648803116     1.4066333946
C     1.7755839069     -2.6664181861     1.0518849357
C     2.912360697     0.7737071417     1.0990966523
C     2.9749291756     -0.5733737665     0.5052015565
C     2.4198667439     1.805228887     0.2643660353
C     0.8001338458     2.5355130187     1.982472812
C     1.3950972738     2.7201306748     0.7100549045
C     -1.2657451205     1.3818533483     2.7511167441
C     -0.6467564279     2.4759900253     2.0080927725
C     -2.2782344305     -0.6787524399     1.759961202
C     -2.2545520005     0.7603267389     1.8914922739
C     -2.8067580632     -1.171676956     0.5654266537
C     -0.9849295298     -2.8751157414     0.4135592205
C     -2.2263976178     -2.3574677995     -0.0771648422
C     1.3894931014     -2.8132150566     -0.249785093
C     0.0099880008     -3.1298266713     -0.5792001225
C     2.6105841034     -0.7607161662     -0.9032775857
C     1.9302717517     -1.9594610165     -1.2611087694
C     2.3014006431     1.6682601278     -1.1725325425
C     2.3905830443     0.3941228916     -1.7809886757
C     0.6280407512     3.1079789077     -0.4406921383
C     1.3300837237     2.6413439383     -1.6260030482
C     -1.3902482416     2.6297171192     0.8220300419
C     -2.4524665096     1.6091546603     0.782241159
C     -0.7946210183     3.0678022656     -0.4088678112
C     -3.2886937739     -0.2866135129     -0.490019174
C     -2.9786726452     1.1200846221     -0.4518192103
C     -2.4653485458     -2.2431549853     -1.4528803951
C     -3.1633862552     -0.9818848803     -1.7140381652
C     -0.176604405     -2.7812983196     -1.9613282849
C     1.0098770839     -2.0466814306     -2.3892169007
C     -1.4365066933     -2.3734103518     -2.424273788
C     1.6540782743     0.222459169     -3.0252662445
C     0.9111213963     -1.015341     -3.2904038272
C     0.6450153693     2.4716673882     -2.8181367201
C     0.9149784387     1.2824466603     -3.5755841182
C     -1.493656252     2.7657559171     -1.6392654175
C     -2.5995861065     1.7664123367     -1.6606470033
C     -0.791578503     2.6734645702     -2.8417198102
C     -2.6539128549     -0.3782791174     -2.8797147529
C     -1.5509805614     -1.2519223129     -3.360932336
C     -0.3943564511     -0.6618964818     -3.8660851136
C     -0.3651756527     0.7631058577     -4.0759295079
C     -2.4942174282     1.0327309918     -2.8943014177
C     -1.3852179712     1.5872599573     -3.6261682322


