58

 C     1.6091796731     -0.205909727     4.3190586067
C     0.7612652904     -1.3811261022     4.2916275262
C     1.2681703101     -2.3155701683     3.3583432583
C     2.6362458662     -0.3921927332     3.3133343128
C     2.4876927754     -1.7336835455     2.7898760786
C     2.5502679187     0.6790834062     2.3716439475
C     0.8086670659     0.8764552759     3.9391766195
C     1.4177090733     1.5070911628     2.7778763369
C     -0.5901548319     -1.0350215075     3.9679169056
C     -0.5805297399     0.4009133516     3.7782841265
C     0.1982892477     -2.6575031842     2.4585504739
C     -0.9652346355     -1.8249849607     2.8269883122
C     0.4433338203     -2.9121980314     1.0983674467
C     2.7200069461     -1.9421358743     1.4500863292
C     1.8150267363     -2.7661226559     0.6623253282
C     2.788734564     0.4837560026     0.9698931568
C     3.0888833091     -0.849093004     0.5612710932
C     2.1507511223     1.3615085778     -0.0155338889
C     0.6265823071     2.1266788913     1.8177692684
C     1.0885978644     2.2489237433     0.4313329088
C     -1.3714941477     0.9716129286     2.8072594454
C     -0.8342946819     2.1136364121     2.0475019152
C     -1.7938471576     -1.2918370992     1.8190778518
C     -2.2527015131     0.0827762424     2.0253115855
C     -0.625111555     -2.6498802881     0.0979241916
C     -1.7424836487     -1.7895584201     0.4408992857
C     -0.3020157773     -2.7875986901     -1.2631128769
C     2.0861955698     -2.5167249723     -0.695552441
C     2.8328251533     -1.2677307962     -0.7795253803
C     1.1174073191     -2.794416596     -1.6654941803
C     2.2570173598     1.0262754258     -1.4404000361
C     2.5964927803     -0.3574732246     -1.8308177709
C     1.4902023965     1.7971387084     -2.3564549573
C     0.1957864437     2.8805410236     -0.5296932047
C     0.4407256928     2.6705013119     -1.9100787825
C     -1.6619918845     2.6987067642     1.1203636143
C     -1.1596381626     3.2045466779     -0.1407375284
C     -3.0594043654     0.6561302533     1.0683602995
C     -2.9802415446     2.0949892685     0.8598912748
C     -2.4695364228     -1.0847595618     -0.6164176039
C     -3.2561710178     0.0459318324     -0.2371898977
C     -1.0381588929     -2.1342190512     -2.3162657859
C     -2.0432625861     -1.1761337636     -2.0217626277
C     1.2409503036     -2.1607891594     -2.8907442585
C     2.0045302685     -0.9410704352     -3.0238320167
C     -0.1096825454     -1.8915001045     -3.3988580284
C     1.0538990451     1.2117212299     -3.6118931603
C     1.2581181533     -0.1192739455     -3.9033239028
C     -0.1029124763     -0.7236201053     -4.1214121107
C     -0.6970552573     2.496148121     -2.832212523
C     -2.1331825461     0.0214870687     -2.8966998717
C     -0.3569479924     1.527569943     -3.778208778
C     -1.0793844865     0.276172434     -3.8572331949
C     -2.2417471689     3.0688801517     -1.0707970504
C     -3.3585131565     2.3892757329     -0.4331669731
C     -3.4832084994     1.1242261667     -1.1487813656
C     -2.0012633503     2.4715672675     -2.3273264455
C     -2.7433843418     1.1878823211     -2.3567848277


