58

 C     1.4329717862     0.0092365952     4.2711529613
C     0.6333960098     -1.1792920307     4.0148021773
C     1.3976807151     -2.1067218516     3.282603533
C     2.5792216482     -0.0975491072     3.3781606689
C     2.6736618282     -1.3993620009     2.8811910391
C     2.5540971525     0.9858343236     2.4239720712
C     0.6734979934     1.0916744334     3.8235866555
C     1.3760294695     1.7630401474     2.7501830686
C     -0.6544481788     -0.8147640598     3.5070758194
C     -0.6588133646     0.637514958     3.4535169553
C     -1.2451903362     -1.5340910172     2.4107028355
C     0.8845616333     -2.7366932133     2.1447531191
C     -0.4784886718     -2.5304568531     1.6723199381
C     2.887411589     -1.6502860916     1.5141339549
C     1.9572617469     -2.7112486501     1.1524681693
C     2.8777415937     0.763022268     1.0434688515
C     3.0820488326     -0.593180964     0.5398473039
C     2.3576121644     1.7251936944     0.1319126581
C     0.6559317766     2.4868332424     1.7593406148
C     1.3118262779     2.6445524694     0.5264475475
C     -1.4371307008     1.3424841216     2.5120109956
C     -0.8294872802     2.458962065     1.7657423938
C     -2.2561609172     -0.8432952497     1.702336573
C     -2.439427072     0.5854465346     1.8488289537
C     -2.6515210087     -1.1853122939     0.3691905558
C     -0.7710245696     -2.7658867285     0.2645962958
C     -1.8843670839     -2.0891861343     -0.411205218
C     1.6964859699     -2.9764798376     -0.1382017799
C     0.3177781296     -3.226771102     -0.576814401
C     2.8259691659     -0.8951439189     -0.8687581508
C     2.364361696     -2.2222801852     -1.1876667498
C     2.1808336648     1.4638201058     -1.2554627157
C     2.4272752544     0.1809329992     -1.8050515072
C     0.5964579578     3.0572661795     -0.65652638
C     1.1132789499     2.3403976146     -1.7684012482
C     -1.5064368491     2.9428049747     0.6486692235
C     -0.7773862836     3.3592287334     -0.5665954524
C     -3.1211790241     1.0845653439     0.6962446415
C     -3.3303098868     -0.035257021     -0.2114566223
C     -2.760787495     2.3431006416     0.1851720228
C     -3.320486496     0.1676768144     -1.5861601558
C     -1.8630423076     -1.8577263085     -1.880278028
C     -2.5211577323     -0.720267609     -2.4144492067
C     0.316799067     -3.0550234049     -1.9554279082
C     1.6095571247     -2.472732295     -2.3479471969
C     -0.7260310145     -2.3362166812     -2.639840498
C     1.6876931867     -0.1277787244     -3.0087144446
C     1.3310506311     -1.4669880576     -3.2688705011
C     -0.0994170504     -1.5051308566     -3.6038690005
C     0.2629019661     1.9606876652     -2.8579037769
C     -1.852460461     0.1343778618     -3.4229806693
C     0.556309279     0.7055540377     -3.4513935411
C     -0.5349540798     -0.1875079764     -3.8118778403
C     -1.5893386682     3.14131836     -1.6912226828
C     -2.8525191992     2.5504796502     -1.2248333823
C     -3.1740966308     1.5119601761     -2.0892395507
C     -1.1205261011     2.4144640504     -2.8302183648
C     -2.1655157868     1.4702001526     -3.1430646141


