58

 C     1.3654521288     -0.0593772453     3.6300693814
C     2.5257906831     -0.3425095667     2.941474451
C     2.4622216806     -1.7585092596     2.5012084899
C     0.5348898666     -1.2858183872     3.6538088044
C     1.1612730215     -2.272711987     2.8211490378
C     -0.792535312     -0.9080053082     3.4774244018
C     0.5534668275     1.0423977266     3.2625151791
C     -0.8303899424     0.5627987667     3.3471050597
C     0.9455845564     1.9128695676     2.1974660901
C     2.9499325912     0.4674286947     1.8603387085
C     2.1936756463     1.6137871505     1.4688225461
C     2.9900049592     -1.8319018382     1.2176470525
C     3.4448556961     -0.4755405665     0.8381516476
C     2.3118204559     -2.6029691358     0.2318871648
C     0.3783188048     -2.9009873211     1.775643111
C     1.0099792105     -3.1055916177     0.4977201156
C     -1.6205596222     -1.6788275252     2.6209425982
C     -1.0320075702     -2.6499426396     1.7567595436
C     -2.7094001304     -1.0439202881     1.9043430029
C     -1.8092260815     1.1480665857     2.5907193619
C     -2.8286693063     0.3400584238     1.9238495134
C     -0.1261304942     2.6454323521     1.508332852
C     -1.4974669361     2.282154836     1.7403647267
C     0.1562926645     3.2524700418     0.2486764567
C     2.3407656359     2.059432355     0.0647143569
C     1.373769881     2.9136366663     -0.4935489085
C     3.5025714294     -0.1180807165     -0.4726392426
C     3.0756717113     1.221883123     -0.8746659086
C     2.3733132261     -2.2105341449     -1.1658385986
C     3.0526596468     -1.054580576     -1.5182896253
C     0.2502818561     -3.0388635018     -0.7594691421
C     1.0829122585     -2.479058777     -1.7772309449
C     -1.8058106626     -2.6534931446     0.5003004303
C     -2.8887094875     -1.7399727928     0.6402093031
C     -1.1580555654     -2.8332878902     -0.7719084633
C     -3.3831839478     -1.0398884967     -0.4877372466
C     -3.2519802517     1.0805573818     0.739204623
C     -2.4777699604     2.3109847574     0.6874405698
C     -3.5815974779     0.4091832686     -0.4323768326
C     -0.8736843472     3.4393515001     -0.699345944
C     -2.1480131381     2.8645799506     -0.561443139
C     1.0207242867     2.8560848522     -1.9223298725
C     -0.3547482129     3.1133649259     -2.0309069861
C     2.6900675947     1.151478435     -2.2255254144
C     2.5713177584     -0.2522872317     -2.6013475956
C     1.5698746121     1.8460337248     -2.7321849485
C     0.5354645902     -1.600419855     -2.7896108667
C     1.3253541383     -0.4540943535     -3.195542107
C     0.6907047685     0.879578291     -3.3609761853
C     -1.7179173954     -2.1642496836     -1.9138209549
C     -2.8863763185     -1.3710469826     -1.7629570308
C     -0.865381811     -1.4780623671     -2.8584417403
C     -3.1525198445     0.9556090617     -1.7333815313
C     -2.4453599539     2.1420691519     -1.8038676495
C     -1.2473556584     2.2188996572     -2.6601006111
C     -0.7140614434     1.024513614     -3.3002637481
C     -2.7399274123     -0.1609277474     -2.548864356
C     -1.500173873     -0.1892438642     -3.1936729858


