58

 C     1.2522209115     -0.0542741134     3.958957201
C     2.4429575517     -0.2799633789     3.2751388799
C     2.3808147647     -1.6086659615     2.6836382631
C     0.399405167     -1.2212114345     3.7688721049
C     1.0946791912     -2.1745996634     2.9250020905
C     -0.856249956     -0.7348671136     3.3761736766
C     0.4905536064     1.1430301923     3.7127101364
C     -0.8577449539     0.751183661     3.3665730462
C     1.1017654725     2.1810637942     2.9727086578
C     2.8791823662     0.6372586985     2.2453823476
C     2.2864043233     1.8794068886     2.1373222768
C     2.8924699175     -1.5412377112     1.3609917535
C     3.1262112301     -0.1373600765     1.0293474631
C     2.3730946351     -2.3939169107     0.3934540397
C     0.4010083963     -2.8259087112     1.8395490514
C     1.1268456235     -3.0905410279     0.6377028211
C     -1.5749230107     -1.4136163272     2.3765958237
C     -0.996810588     -2.5242628895     1.6658707944
C     -2.4872191183     -0.7144837649     1.5087144871
C     -1.6483062407     1.4756282425     2.4315473182
C     -2.5560579029     0.7271749894     1.5115684427
C     0.2633893382     3.015467639     2.2212991001
C     -1.0919117171     2.7174765023     1.9602960085
C     2.0388607899     2.4399143802     0.8104890439
C     0.8872351196     3.2625444059     0.9196306164
C     2.8306554593     0.3553474672     -0.2695192685
C     2.2288127976     1.6962746345     -0.3893763561
C     2.3951657488     -1.9969934781     -0.9803058883
C     2.6105560615     -0.6306358635     -1.324491916
C     0.4705735749     -3.2461145579     -0.6396667642
C     1.3573800723     -2.7508680031     -1.6589110115
C     -1.628808788     -2.5717087365     0.3806476331
C     -2.5878013968     -1.4668172282     0.3063921424
C     -0.9394776898     -2.9896829633     -0.778715607
C     -2.9521807838     -0.8665227594     -0.9342565566
C     -2.9911491702     1.3299565864     0.3166873747
C     -3.2365792329     0.549993974     -0.8931615562
C     -1.3578761478     3.155061379     0.5901935238
C     -0.0825911144     3.3982436627     -0.0768905947
C     -2.3800804581     2.5848864151     -0.1309898056
C     1.368607984     2.0210838814     -1.5434443781
C     0.1816207202     2.8719997172     -1.3842537033
C     2.0276643429     -0.1832663337     -2.5612850356
C     1.3685841817     1.1182300661     -2.6375505217
C     0.8758446717     -2.3276699515     -2.8994527385
C     1.3525632203     -1.085630152     -3.4086816711
C     -1.4218887624     -2.504511279     -2.0679505574
C     -2.4389591439     -1.4281674208     -2.1370536956
C     -0.5470199243     -2.3714770632     -3.1477198014
C     0.2378912309     0.9988357007     -3.5533623973
C     0.2101583372     -0.3692989756     -4.0011802726
C     -2.1045884941     -0.5851755896     -3.2591395068
C     -0.924414881     -1.1458855634     -3.8675599517
C     -2.9058248151     1.3416647153     -2.0285947746
C     -2.2404357528     2.5261678827     -1.5425325149
C     -0.9765036032     2.6215486144     -2.1894013072
C     -2.2004435781     0.8157401006     -3.1380382336
C     -0.9673295836     1.6201507818     -3.2399697222


