58

 C     1.2273857668     -0.0764833603     3.6202519565
C     2.3645618335     -0.3507913401     2.906670819
C     2.3311537257     -1.7545904328     2.4568962446
C     0.3953752962     -1.2843559662     3.6562141889
C     1.061315509     -2.2979862505     2.8618098352
C     -0.9085893011     -0.8958024845     3.3658032716
C     0.4213257027     1.0439018785     3.234797517
C     -0.9287107392     0.5815541858     3.2186146499
C     0.899688781     1.975703248     2.2237042805
C     2.8300472452     0.4860374851     1.8325194028
C     2.1397433335     1.6646880728     1.4599199728
C     2.7785454259     -1.7878846615     1.1392137771
C     3.301932402     -0.4413764714     0.8214123589
C     2.0541553894     -2.5132166473     0.1130267571
C     0.3241610303     -2.9824156894     1.8980622675
C     0.8551886185     -3.153423029     0.5484936945
C     -1.7478541479     -1.6985233207     2.5029436798
C     -1.1146259554     -2.7738433907     1.7927007674
C     -2.847120647     -1.0326877807     1.8645882046
C     -1.9162067161     1.2362884761     2.4378966638
C     -2.9424766393     0.449992309     1.8406843432
C     -0.0868580521     2.7478804004     1.598813716
C     -1.5002846685     2.4518806082     1.7758098848
C     0.1057005747     3.2913580442     0.2463140996
C     2.2999339625     2.1373731061     0.0626671313
C     1.2500829058     2.9599468287     -0.5552743753
C     3.4219286732     -0.0289264262     -0.4614905837
C     3.111031169     1.3489776545     -0.8090371603
C     2.1561998379     -2.0500964225     -1.2750530649
C     3.0091277241     -0.9080020301     -1.5730249954
C     1.038339896     -2.2246719482     -2.1382714596
C     -0.273379085     -3.2650936672     -0.3395268931
C     -1.497574984     -3.0735014608     0.4307492413
C     -0.1876683246     -2.7914381051     -1.6417213395
C     -3.3245164187     -1.4964977898     0.6297642661
C     -2.5800945675     -2.423145992     -0.1531516278
C     -3.4844295386     0.8291655046     0.5605470736
C     -3.6572571541     -0.3512983792     -0.2055111038
C     -2.1455144533     2.8509119707     0.5842205392
C     -1.162794395     3.3931480522     -0.3373339736
C     -2.9981401213     1.9729570709     -0.1136576375
C     -1.4255180164     2.85273889     -1.6325578547
C     -2.5116432543     1.8743429709     -1.4954706714
C     1.0030712913     2.8564039065     -1.96843298
C     -0.3521392007     2.6178590758     -2.4566539818
C     2.8797862756     1.329745834     -2.2177470673
C     2.7674754451     -0.080660007     -2.6613977928
C     1.8500325794     2.0472194438     -2.7815854216
C     0.6854034534     -1.227997762     -3.1470288365
C     -0.3238956681     1.4076391027     -3.2900822604
C     1.5642134584     -0.1846100283     -3.4489183731
C     1.0195044471     1.130902728     -3.5837846959
C     -1.2946543614     -2.0293961007     -2.212396139
C     -2.4509809331     -1.8341762236     -1.4941262982
C     -3.0599040023     -0.5048020285     -1.4699100803
C     -2.4213524938     0.6165343657     -2.1431176401
C     -0.735715598     -0.9806916169     -3.0517286205
C     -1.2665122564     0.3432355798     -3.0271177167


