58

 C     1.2879577143     0.1550882166     4.0291086487
C     2.4059877652     0.0040554675     3.212858265
C     2.4971516581     -1.3901512038     2.7795639051
C     0.4675250475     -1.0677816256     3.8315009414
C     1.2224982292     -1.9916534535     3.0563997542
C     -0.8037410624     -0.6335821909     3.3868497748
C     0.4731264676     1.2754929876     3.8578281992
C     -0.8732137993     0.7915273456     3.5965271595
C     0.753415313     2.2602270912     2.8618863187
C     2.605281145     0.8618406045     2.0699318131
C     1.7760048997     2.0163139017     1.8727716887
C     2.9468415929     -1.3938261327     1.4511108999
C     2.9348702531     -0.0083915265     0.9590471335
C     2.5392554302     -2.4114917298     0.6089803906
C     0.5652812246     -2.783103908     2.0615076688
C     1.4198237714     -3.2582117168     1.0131192149
C     -1.4266519715     -1.2148883386     2.2052034926
C     -0.8236342268     -2.4372248     1.6922456156
C     -2.2261148369     -0.3574407326     1.3310828668
C     -1.499572126     1.6300822289     2.6748212922
C     -0.538732681     2.6996661782     2.3776340629
C     -2.280996975     1.0828932934     1.5996312477
C     -0.6337113471     3.3563477817     1.1876215719
C     1.5545456445     2.452643533     0.4829582076
C     0.4720995979     3.3305925333     0.2286967903
C     2.5868455986     0.2814613961     -0.3865517887
C     2.0251308319     1.6097132873     -0.6432543574
C     2.403341027     -2.1765745763     -0.8091579976
C     2.3556185917     -0.8312004925     -1.3227044669
C     0.8781448124     -3.8081183276     -0.1697311014
C     1.5177670311     -3.1594411012     -1.3159324775
C     -1.3239797287     -2.926819632     0.4483023772
C     -0.490939525     -3.7275851056     -0.4042098388
C     -2.5578039093     -0.8069433126     -0.0275000981
C     -2.1665538911     -2.1083218036     -0.3914695244
C     -2.8453959349     0.1694509508     -1.1228270474
C     -2.5618214789     1.9930827375     0.5310432461
C     -1.8346034502     3.20099446     0.4302651509
C     -2.8528638768     1.5424180054     -0.8331039561
C     -0.106946512     3.4804638238     -1.0934598388
C     -1.5316216271     3.4111513286     -0.9599793374
C     -2.2924388773     2.5237327996     -1.7614941398
C     1.5232565564     1.842316188     -1.9375414961
C     0.4788542436     2.83257045     -2.1935294213
C     1.5885515463     -0.6045063626     -2.5435886754
C     1.341919901     0.7539544183     -2.8889532853
C     0.5455139063     -2.8560622376     -2.3070426345
C     -0.7116773264     -3.3052926581     -1.7778375421
C     -1.8095298316     -2.4224149672     -1.7942904227
C     0.6257930311     -1.6221962961     -3.0173492344
C     -2.5142398098     -0.1830201142     -2.5039934485
C     -1.8342221393     -1.4468082081     -2.7625551719
C     -0.6285461662     -1.1490395115     -3.5281940851
C     -1.7342441591     2.1028241224     -2.9896890206
C     -0.3452751932     2.3570615184     -3.243962952
C     0.2397314804     1.1134831715     -3.7392531628
C     -2.0120190519     0.7663697505     -3.407464485
C     -0.771042817     0.1842724542     -3.9618767398


