58

 C     1.2806714481     -0.0007998209     4.1360298401
C     2.4827857927     -0.3316016885     3.5507146555
C     2.3258985154     -1.6583520146     2.864168933
C     0.4170900932     -1.1894674899     4.0487292693
C     1.0044777816     -2.0861430437     3.0391287799
C     -0.864567031     -0.7478423798     3.8872369568
C     0.5218224353     1.1503306543     3.6560335139
C     -0.8248307705     0.7296060852     3.6717813332
C     0.9707567556     1.8925774774     2.4880966663
C     3.0438050475     0.5330361575     2.6089284954
C     2.321791375     1.6465183651     2.0564980843
C     2.9081130465     -1.5591668225     1.5768301484
C     3.5460054701     -0.2659653733     1.500027358
C     2.1969887852     -2.0659216949     0.4252561222
C     0.2029434941     -2.5074318211     1.8913561184
C     0.8267897235     -2.5662188278     0.5709728921
C     -1.731186313     -1.2945804615     2.9204685649
C     -1.2421501103     -2.2800267951     1.9718837515
C     -1.7535563809     1.0439516634     2.6834076509
C     -2.5209935008     -0.1865034165     2.4110634954
C     -0.0091300375     2.2832881803     1.4608068206
C     -1.4091263598     1.8884204558     1.5842805851
C     0.4682111491     2.6353763847     0.1190124684
C     2.665174523     1.7004734695     0.6498786362
C     3.4549264102     0.4914498661     0.3393637653
C     1.8206154791     2.230904747     -0.3196322069
C     2.5624766285     -1.4750883302     -0.8146967643
C     3.1890473435     -0.1736709938     -0.8487694464
C     1.7741059619     -1.5850302045     -2.0153978383
C     -0.0161574405     -2.6355855054     -0.6480741884
C     0.4959444934     -2.1898729737     -1.9667015515
C     -2.0183347424     -2.4210919815     0.7975197306
C     -1.4181836221     -2.6665687651     -0.4825579125
C     -3.2280445888     -0.3212595213     1.2535128263
C     -3.1745947438     -1.5785929307     0.5798496546
C     -2.2878990911     1.8212469766     0.3986686307
C     -3.2260472111     0.7467020866     0.2544311896
C     -0.4817263735     2.9022450969     -0.8956416329
C     -1.8548832722     2.4382623537     -0.7887023839
C     -0.1291257209     2.8955389904     -2.2761847726
C     2.0268680022     1.8078341076     -1.7322253486
C     2.6519286309     0.5468719538     -1.9544433329
C     2.0327875503     -0.4203006182     -2.8426654133
C     1.0789186918     2.2326764524     -2.715299317
C     1.1042464383     0.0093572515     -3.7852606767
C     0.7358659347     1.4014934804     -3.8123792079
C     -0.4240942689     -1.7523834546     -3.0035702632
C     -0.088242174     -0.7602307871     -3.933443143
C     -2.316248825     -2.0617490543     -1.4958659762
C     -3.3050356156     -1.3093579905     -0.7950451837
C     -3.3924246835     0.1217340533     -1.0257201784
C     -1.8379332999     -1.5545657121     -2.6731848852
C     -2.2488861052     1.9812736846     -2.1057671093
C     -1.2380370649     2.4045796006     -3.0350829953
C     -0.7224085928     1.4900153212     -3.9920376939
C     -1.2246185108     0.1872667816     -4.0388854397
C     -2.8588655525     0.6788784421     -2.227995142
C     -2.2637249675     -0.2465396567     -3.1707069431


