58

 C     1.4723754254     -0.0908467488     4.2844812066
C     0.6672769875     -1.2795730778     4.3146048547
C     1.4862723198     -2.3378087651     3.8155893817
C     2.6359433959     -0.3496153913     3.4247555282
C     2.6977941414     -1.7071857315     3.1582791601
C     2.6042643039     0.5772261584     2.3223388926
C     0.7468119338     0.9438896619     3.6947880859
C     1.4922787944     1.4865030132     2.5929997802
C     -0.5803311892     -0.9927712209     3.6405254435
C     -0.5724901265     0.4558123397     3.3500076209
C     -1.1071494442     -1.8848355285     2.6449993441
C     0.9750158215     -3.2632497241     2.9492776189
C     -0.3666932263     -3.1205372714     2.4025100159
C     2.7952482986     -2.2108989989     1.8212865612
C     1.9006230948     -3.3475689236     1.7826546355
C     2.7623871688     0.1335868297     0.9771432658
C     2.8003305131     -1.3038027505     0.6919768689
C     2.3380559602     1.0604718828     -0.0631260809
C     0.8255882338     2.1253944823     1.5589638484
C     1.5116545442     2.1898847033     0.2899622856
C     -1.2499903001     1.0038964353     2.2703964403
C     -0.6209378696     2.0867295363     1.4924912179
C     -1.8870069125     -1.3048122033     1.5347795033
C     -2.1343474353     0.1303090624     1.5053870156
C     -1.9265629239     -1.943020582     0.232639418
C     -0.2656874807     -3.5506560813     1.0575035084
C     1.1623359845     -3.6333445317     0.6705814735
C     -0.9646730315     -2.9699796836     0.0021527633
C     2.1394369801     -1.7168880756     -0.5550178928
C     1.3011317323     -2.8718816099     -0.5239940428
C     -0.0256961115     -2.730607526     -1.0836884072
C     2.2445219641     0.6301572375     -1.4455738925
C     1.8687049728     -0.7604456645     -1.6206876607
C     1.8687831815     1.5950556719     -2.4305425184
C     0.9156255001     2.9929808236     -0.7036877427
C     1.3034197725     2.8637655814     -2.0284391977
C     -1.2905162971     2.6569732054     0.3515036187
C     -0.5295571888     3.2965963289     -0.6651600534
C     -2.8158172372     0.6942578917     0.4230778913
C     -2.555782054     2.0784707322     -0.0414110505
C     -2.4145907512     -1.262695935     -0.9494034235
C     -3.1494662462     -0.0609033701     -0.7380951671
C     -0.3042834016     -1.8361663179     -2.102716479
C     0.800862728     -1.0187402067     -2.5737957446
C     -1.6759790965     -1.3442618398     -2.2078996258
C     1.1328060952     1.2089223467     -3.5806513431
C     0.4944237324     -0.0522262869     -3.5739588228
C     0.1622491161     3.1904135292     -2.8816169736
C     -0.9932995786     3.4302191987     -2.0314324626
C     0.1196177371     2.2454427924     -3.9061316641
C     -3.0187481345     2.2245460478     -1.3469158704
C     -3.4032529412     0.8689572883     -1.7996479476
C     -2.2455279301     2.8475179922     -2.393820586
C     -1.9577932757     -0.4173414233     -3.261183941
C     -0.8769090615     0.1452409737     -3.9754655961
C     -1.1065788577     1.5885865354     -4.1903725177
C     -2.9036062773     0.6719738045     -3.0575674618
C     -2.282566013     1.9388833632     -3.5256530729


