58

 C     1.4857026583     -0.2666140475     4.5179818291
C     0.5999365634     -1.3585746725     4.5157948408
C     1.0779186174     -2.3702292427     3.5701440658
C     2.4922675325     -0.5629817955     3.5646497416
C     2.2743236703     -1.8931540902     2.9580046372
C     2.6551062929     0.5642767792     2.6923114274
C     0.7537253009     0.8815424617     3.9408781657
C     1.4939616897     1.4744418766     2.8857772898
C     -0.6597073303     -0.9295916094     4.0128022429
C     -0.5910182659     0.4936869148     3.6758382613
C     -0.0185832344     -2.7892505247     2.7484111333
C     -1.1515886474     -1.8606102642     3.039208357
C     0.2160313317     -3.0889691825     1.4185095574
C     2.4716033632     -2.0639678153     1.5399826186
C     1.4905827695     -2.8028195109     0.7911858597
C     3.0648928221     0.3435692489     1.4046988636
C     3.0840552316     -0.997285223     0.8065398349
C     2.7199030491     1.2946106221     0.3784014746
C     0.8380227643     2.0392578042     1.7578128903
C     1.6019627732     2.1603023465     0.5004472843
C     -1.2480807332     0.9535109802     2.5160444249
C     -0.5973882547     1.9133479072     1.6329164515
C     -1.9782857701     -1.4119102465     2.0177761177
C     -2.2198474693     0.0448492706     1.9101571173
C     -0.8237373311     -2.8928484535     0.4260468031
C     -2.0055711485     -2.1704033442     0.746343173
C     1.2165601266     -2.5433058746     -0.5964252444
C     -0.2145375084     -2.7050247748     -0.8469348778
C     2.8687338568     -0.8132931878     -0.585597318
C     2.9278546984     0.6117601266     -0.8624221736
C     1.9215531331     -1.5828806696     -1.3574366273
C     2.4234115425     1.1240726177     -2.0074839546
C     0.9784740232     2.6530068378     -0.7111758607
C     1.6419828073     2.3523868141     -1.9552283723
C     -1.2507431234     2.300529805     0.3807079786
C     -0.4738710024     2.8581827061     -0.754909517
C     -2.9021463307     0.5141191143     0.8060197631
C     -2.5163848098     1.7383724072     0.1136049077
C     -2.7342633954     -1.6653792239     -0.3352425414
C     -3.4095514914     -0.3912976039     -0.1944661698
C     -0.877769198     -2.0623316341     -1.928142104
C     -2.2366226988     -1.699261177     -1.6853883226
C     1.3153944414     -1.0067583667     -2.5724975859
C     1.8343591257     0.2544201279     -3.0192813711
C     -0.0856238227     -1.3060880347     -2.9214154423
C     0.9722057693     2.4430125706     -3.1865063709
C     1.1003633641     1.1038761549     -3.8728512615
C     -1.1122612576     2.9656400564     -2.0278976569
C     -0.3499030888     2.8533986747     -3.2602037357
C     -3.0186955418     1.6251733594     -1.2431069743
C     -3.5056213017     0.2575286508     -1.4211971879
C     -2.838254618     -0.5792985929     -2.4048889403
C     -2.3658132658     2.24664856     -2.2770553399
C     -0.794268057     -0.4183408824     -3.7950164341
C     -0.1539208992     0.7486239708     -4.3367493441
C     -1.038436455     1.9160362267     -4.1433128092
C     -2.1580329259     0.0144294043     -3.4379155269
C     -2.1903603221     1.4878556078     -3.5282480676


