58

 C     1.4446193231     -0.0228068972     3.6505143103
C     2.5834356904     -0.267221355     2.8975820968
C     2.5239253671     -1.6352092266     2.4104727897
C     0.6404637946     -1.2619136962     3.6767431483
C     1.2550416944     -2.19591385     2.7832779023
C     -0.7024941348     -0.9013162557     3.5380172566
C     0.5954958693     1.0894136404     3.3977690823
C     -0.7700702116     0.5855154048     3.5050052408
C     0.9294423145     2.0579218452     2.3885527849
C     2.9001857863     0.5999572483     1.8055766944
C     2.1602159897     1.8050177742     1.6100486842
C     2.9256462814     -1.6120174727     1.0595055977
C     3.2218953672     -0.241752771     0.6683545848
C     2.2650744187     -2.4353252486     0.1308456599
C     0.4441203551     -2.8532379662     1.7706730262
C     1.0434349869     -3.0843591658     0.4822673545
C     -1.5457289773     -1.6415062932     2.6813972151
C     -0.9596555565     -2.6002862798     1.7807248244
C     -2.595404777     -0.9649485568     1.962022859
C     -1.7963093294     1.2107034304     2.8519765039
C     -2.8073588368     0.4061030175     2.1312855544
C     -0.1847834445     2.7809003443     1.7570352992
C     -1.5238712844     2.392961498     2.0507370141
C     0.018694149     3.3708913538     0.4475330748
C     2.2531375051     2.3383452692     0.2876364897
C     1.246266312     3.213402675     -0.1837399159
C     3.0364574063     0.1869719895     -0.6786704019
C     2.7072575701     1.5524497023     -0.8423246271
C     2.2227360445     -2.0848545066     -1.2794343849
C     2.6123164036     -0.7911503329     -1.7096387775
C     0.2586531831     -3.1947093871     -0.7379269962
C     1.078026681     -2.7602585766     -1.855404364
C     -1.7229363339     -2.5643407981     0.5337223593
C     -2.7193781102     -1.5545388793     0.6341937504
C     -1.133133549     -2.9084380527     -0.7272369765
C     -3.0938936199     -0.7521915354     -0.5132017931
C     -3.2331394109     1.1796229059     1.0245364553
C     -2.5057031445     2.3950985551     1.0048142181
C     -3.314417162     0.6506000421     -0.3172400227
C     -0.9856074855     3.2557319267     -0.6349613269
C     -2.205942779     2.6982900739     -0.3621003097
C     -2.7314847974     1.6112251319     -1.2106855146
C     1.0550826452     2.9978344561     -1.6258665787
C     1.967444037     2.004266751     -2.0352752981
C     -0.3156456638     2.9268727516     -1.8999389753
C     1.9729863398     -0.2995882439     -2.9185980119
C     1.5531356595     1.1131923251     -3.005373287
C     0.4847836155     -2.2666696255     -3.0167760008
C     1.0288097017     -1.0687970491     -3.5964870465
C     -1.7112736319     -2.3082016561     -1.9124164628
C     -2.6069154416     -1.1402476318     -1.7753928966
C     -0.9478396072     -2.1369308807     -3.0648647354
C     -2.0759011177     1.2142213782     -2.4109300473
C     -0.8176241961     1.9071259078     -2.7879786527
C     0.1860161626     1.1566150363     -3.486735123
C     -0.0990155933     -0.1758012862     -3.9456651994
C     -2.2374002041     -0.1673774126     -2.7703084836
C     -1.2718722243     -0.809341515     -3.6176496312


