58

 C     1.2178134418     0.0899374149     4.0324062153
C     2.3573443098     -0.0371736217     3.2551481542
C     2.3884178347     -1.4031953292     2.7277976491
C     0.3781687956     -1.1178857354     3.7671169018
C     1.1120856007     -2.0187840791     2.94420453
C     -0.8897455477     -0.6711469135     3.3762166713
C     0.4109127433     1.2160397243     3.8774367097
C     -0.9496758298     0.7637444377     3.6498582637
C     0.7133035869     2.2187518343     2.8954677424
C     2.630814466     0.8606463165     2.1598004445
C     1.7759444179     1.9959289184     1.939085016
C     2.9626443048     -1.3754027019     1.4512727639
C     3.0357734115     0.0360170522     1.0356262563
C     2.5524444926     -2.3395786357     0.546229176
C     0.467613122     -2.696356658     1.8585730191
C     1.3481277684     -3.0989525869     0.8068668766
C     -1.5483522504     -1.2194856603     2.1973827949
C     -0.9095341045     -2.3246520577     1.4881500145
C     -2.4771368553     -0.3393004459     1.4914371385
C     -1.5530196082     1.6294826833     2.7421328274
C     -0.5646517311     2.6639243578     2.4003434775
C     -2.4429873225     1.1237056037     1.7318446076
C     -0.6558794178     3.2899953507     1.1806216694
C     1.5927558136     2.4390244621     0.5414943092
C     0.4572507906     3.2384761719     0.2390472548
C     2.8372378517     0.3932101179     -0.3214448594
C     2.200129808     1.6855646812     -0.5736158964
C     2.6296926599     -2.0598075354     -0.8752368803
C     2.7565093141     -0.7019691195     -1.3215269191
C     0.8415157267     -3.4558024633     -0.4674273556
C     1.7013123092     -2.9108704152     -1.5141324467
C     -1.3923712582     -2.6710969663     0.1418133685
C     -0.4885664178     -3.2649091848     -0.8268426181
C     -2.984909248     -0.7675334308     0.2438196963
C     -2.4771598278     -1.9413885983     -0.4046299001
C     -3.3101301722     0.1768357591     -0.8202898742
C     -2.7040621204     2.0100337161     0.6488990205
C     -1.8537146555     3.1284196667     0.4300002305
C     -3.0722189643     1.5179593806     -0.6752861099
C     -0.124204123     3.2886301395     -1.1004477401
C     -1.5540832636     3.1907569766     -0.9772948174
C     -2.3051825378     2.2416859087     -1.6973291206
C     1.7122451738     1.9190265711     -1.8952440433
C     0.4822692744     2.6362174019     -2.1434493427
C     2.1708650664     -0.4265865758     -2.601064905
C     1.7538402194     0.8861833507     -2.866642447
C     0.8994246719     -2.5182268876     -2.6073575033
C     -0.4863260258     -2.8336298531     -2.2551600143
C     1.2051848421     -1.3225907267     -3.2565143128
C     -2.6038540925     -1.7618434911     -1.8502704604
C     -3.000059756     -0.4474846182     -2.0874597763
C     -1.5030577498     -2.0468060964     -2.7319565845
C     -1.7102241605     1.5402209215     -2.8164290879
C     -0.3296596231     1.8549615065     -3.1077395285
C     0.5152429414     0.8682686981     -3.6381924067
C     0.1270639156     -0.494821525     -3.7877523247
C     -2.1304832266     0.1917788577     -3.0642605732
C     -1.2126988144     -0.8281460188     -3.5150949811


