58

 C     1.5060167228     -0.1467537956     4.888694444
C     0.728228107     -1.2639140205     4.6774620468
C     1.3160140684     -2.1481274923     3.6897186945
C     2.5976976688     -0.2451977103     3.8992452664
C     2.4497858589     -1.484588514     3.115179622
C     2.6130696614     0.9354921224     3.1787613264
C     0.6713036829     0.9926386247     4.459596578
C     1.4178875258     1.7587866704     3.5716471451
C     -0.6052198406     -0.9091161151     4.1718527365
C     -0.6408068192     0.5148977054     4.0053710632
C     0.2569822695     -2.6186340384     2.8535114921
C     -0.945405435     -1.7848791711     3.1026047053
C     0.5545028898     -2.9014946045     1.5486577464
C     2.5900511318     -1.4723637176     1.6766561627
C     1.7913422657     -2.4185227894     0.9649666794
C     2.6927063775     0.9798804963     1.7546492093
C     2.80808533     -0.1957091348     0.9515411199
C     0.8533220492     2.2525468765     2.3802727272
C     1.7891114885     2.0052581981     1.2854846637
C     -1.2203054151     1.0253474664     2.8106394697
C     -0.5326108749     2.0815778188     2.0708092603
C     -1.6995690016     -1.3167325357     2.0005353108
C     -1.9940185075     0.1051768801     1.968705129
C     -0.4567745956     -2.8011403476     0.512682878
C     -1.5977028694     -2.0056421824     0.6929559193
C     1.5653796446     -2.3099556384     -0.4326463924
C     0.2205811334     -2.7396232523     -0.7529667295
C     2.4854602051     -0.0595044101     -0.4534660164
C     2.113569361     -1.2467339355     -1.2120471528
C     1.4013200471     2.1033292053     -0.0388677328
C     1.9729315681     1.1904544757     -1.0098448271
C     -0.9248515203     2.4052118644     0.730519182
C     0.0799730992     2.658338309     -0.3002439762
C     -2.5219258907     0.6108161786     0.7772337064
C     -2.1679048144     1.9013513985     0.2542481902
C     -2.2295793145     -1.4598548643     -0.5195379978
C     -2.8676019579     -0.2074564085     -0.379765874
C     -0.4108549826     -2.3839260927     -1.9446734775
C     -1.766634165     -1.8332896069     -1.8645206347
C     1.631859847     -1.1388356385     -2.5136961856
C     0.4757036161     -1.8976564151     -2.9693869473
C     1.5442267833     1.2992777085     -2.3886389649
C     1.5910219708     0.130922676     -3.2322698974
C     -0.315657386     2.7759905473     -1.626990065
C     0.5223738536     2.2884022879     -2.7258675474
C     -2.549285813     1.9730332398     -1.1166681712
C     -3.0714515458     0.6650172787     -1.502255302
C     -1.7060004617     2.6312036175     -2.0373678906
C     -2.2322682877     -1.0904831364     -2.99009131
C     -2.8892813347     0.1900522614     -2.8040337139
C     -0.024056894     -1.2678905155     -4.1156414704
C     0.7245197617     -0.0233684697     -4.3442761591
C     -1.4061181233     -0.9417794772     -4.1912925021
C     -0.3056404724     2.1380641011     -3.8626851336
C     -1.7089530704     2.2653252333     -3.4048282621
C     -2.3830336905     1.0970991145     -3.8342270785
C     -0.2336822705     0.9715098931     -4.6747337617
C     -1.5578326449     0.366171841     -4.7506712805


