58

 C     1.4952435899     -0.1788524127     4.446321018
C     0.733347478     -1.3423327364     4.5387610161
C     1.173051635     -2.2752595722     3.5606570277
C     2.4517679472     -0.331736346     3.3556436907
C     2.2576989794     -1.6206864561     2.7644769233
C     2.3012718694     0.7962495517     2.5165697639
C     0.6290491662     0.9276183799     4.1442195488
C     1.1436372799     1.5914613593     3.0005354445
C     -0.6855032705     -0.9956052889     4.2877913285
C     -0.7523659953     0.4403248417     4.108071532
C     0.0162830376     -2.6662952907     2.8431298371
C     -1.1641845751     -1.8412325037     3.2753191287
C     0.1254774988     -2.9702902409     1.4968177438
C     2.292833013     -1.7621552977     1.349121052
C     1.345071071     -2.6923651028     0.7535917841
C     2.4999038944     0.691320194     1.1327679423
C     2.6160489724     -0.6198713379     0.5148161242
C     1.9994589041     1.7785219436     0.3153678209
C     0.2779711877     2.1978991703     2.0381376313
C     0.7885299201     2.4674199201     0.7098703446
C     -1.5776809934     0.9233683186     3.1028460455
C     -1.1209043195     1.9642126543     2.1715407552
C     -2.0766385571     -1.3627916606     2.2672628407
C     -2.386780412     0.0255619899     2.3114580177
C     -0.9881306347     -2.8492769507     0.592659898
C     -2.1033261729     -2.0134209553     0.9371779376
C     0.9986918256     -2.6393203103     -0.601804289
C     -0.4567261075     -2.8316431139     -0.7261882887
C     2.4873336904     -0.7135910848     -0.942368076
C     1.6748258376     -1.7934756072     -1.5307724589
C     2.3777514711     1.7465674857     -1.0395090511
C     2.6369248968     0.4559553561     -1.7037141188
C     1.749292225     2.5808765897     -1.9543011897
C     -0.1185600963     2.864986996     -0.356676716
C     0.4411152811     3.0825751391     -1.6536649825
C     -1.929789426     1.9246808994     1.0005476155
C     -2.7454807548     0.731327013     1.0986931292
C     -1.5066445558     2.4293068552     -0.2630301653
C     -2.7432066262     -1.3669199433     -0.1488308278
C     -3.0592602767     0.0517762634     -0.0523430309
C     -1.1552067131     -2.2952467866     -1.8201467312
C     -2.3622995406     -1.58112583     -1.5174153294
C     1.0790232482     -1.6005414122     -2.7946587561
C     -0.3694818514     -1.88881202     -2.9680131261
C     2.1804089838     0.5747867863     -3.0792078483
C     1.7343099364     1.9314625616     -3.2731621475
C     1.39939529     -0.4774105221     -3.6345321943
C     -0.3338807965     2.8502196383     -2.8276570681
C     0.5070212949     2.2163968091     -3.8743595977
C     -2.1693940361     1.9178464622     -1.4604130525
C     -2.8789934515     0.6776251146     -1.3385234632
C     -2.6407727211     -0.3808094773     -2.2826888658
C     -1.5853409684     2.1882169989     -2.7542129486
C     -0.8800621698     -1.0068654676     -3.9118278097
C     0.2086321574     -0.1490249375     -4.3907370597
C     -0.255499081     1.168825555     -4.4347316479
C     -1.98163827     -0.1365744141     -3.5078526088
C     -1.5936191892     1.1861422327     -3.7908295019


