58

 C     1.4282130704     0.1579480016     4.3604415895
C     0.6428651262     -1.059443025     4.2318181583
C     1.3988109605     -2.0150215888     3.5511378906
C     2.6067728831     0.0026541822     3.5223831976
C     2.6204129375     -1.3210191199     3.0583502558
C     2.6129028543     1.0503771936     2.5231650097
C     0.6613536209     1.1681214081     3.7704027782
C     1.4305917191     1.8539584244     2.7523892084
C     -0.6850099139     -0.7198383351     3.7195883701
C     -0.6817950919     0.7051579003     3.4242646337
C     -1.2875241841     -1.5648605798     2.7980777225
C     0.8480593109     -2.7411648404     2.4544144188
C     -0.5304609     -2.6530548417     2.1860911596
C     2.7764008461     -1.6373894991     1.6826108801
C     1.7648662748     -2.6153667417     1.3223256344
C     3.0021217848     0.7901795907     1.169085273
C     3.1117941487     -0.6099165875     0.7285748751
C     2.5564483078     1.7377785401     0.2074318431
C     0.7638650185     2.5059256253     1.7102540445
C     1.5081116334     2.6697243166     0.5024072871
C     -1.3486885589     1.2344396947     2.3040908493
C     -0.7028625059     2.3493371394     1.5928737615
C     -2.1504639173     -1.0215836744     1.7702514334
C     -2.2469619467     0.3652612396     1.5218421887
C     -1.0105293673     -2.8014037774     0.8467296153
C     -2.1383784261     -1.9212519395     0.6441239847
C     1.3152325728     -2.7637782983     -0.008834443
C     -0.1158029478     -3.0221504353     -0.2451891833
C     2.836900848     -0.9024818296     -0.6266733277
C     2.0278608977     -2.028873988     -1.0071479979
C     2.4485450134     1.4394465638     -1.2130782099
C     2.5912536772     0.1280395963     -1.6208200841
C     0.8619652451     3.0331693535     -0.718878635
C     1.4204809258     2.2681172127     -1.8165788985
C     -1.3040425486     2.7917026325     0.4290064359
C     -0.5079506921     3.3091210454     -0.6954089803
C     -2.7799602195     0.7968942442     0.2282747917
C     -2.4816130267     2.1380938832     -0.1484845284
C     -2.5922616465     -1.5505674786     -0.6346498222
C     -3.1037094637     -0.1829546792     -0.8332721732
C     -0.6508301706     -2.8065123482     -1.5281779339
C     -1.9753966766     -2.2578670803     -1.7245520843
C     1.4426515486     -1.7624310557     -2.2932555492
C     1.7331196212     -0.3947834464     -2.6733962481
C     0.1959368685     -2.3071185551     -2.6171694871
C     0.6130789669     1.8217646821     -2.9000344547
C     0.7932202526     0.4174781181     -3.3715694807
C     -1.2305958023     3.1154782385     -1.8780444455
C     -2.5383125031     2.5162157323     -1.5161905856
C     -0.7076128796     2.4231777932     -2.9965897419
C     -3.2256471277     0.2802414673     -2.1877920222
C     -2.9195038047     1.6416307317     -2.5019076397
C     -1.8199540436     1.6432208953     -3.5182790085
C     -2.0086906294     -1.6790400851     -3.0235473693
C     -0.6128442533     -1.6088079129     -3.5305300848
C     -0.3523050478     -0.2820169433     -3.9331754536
C     -2.6454548517     -0.4964049065     -3.2736267543
C     -1.6586737775     0.3724481263     -3.9755526435


