58

 C     1.2515631866     -0.0170032851     4.078440104
C     2.3615470254     -0.2397418064     3.3042907828
C     2.2709726489     -1.5769801294     2.697349331
C     0.3915542962     -1.232579338     3.9439599176
C     0.9754277437     -2.1176697952     2.9595485366
C     -0.8897057676     -0.7918201768     3.7706175297
C     0.4268018243     1.1568105891     3.857747496
C     -0.9204989067     0.699574323     3.7894870189
C     0.8271960494     2.1002543768     2.8781524123
C     2.7679264853     0.679935653     2.2582220725
C     2.0325510821     1.852260751     2.0740629671
C     2.7580625506     -1.498839613     1.3914946817
C     3.0742136475     -0.0994620026     1.0877265514
C     2.2213883462     -2.3426462561     0.3864811294
C     0.1941469429     -2.6160634997     1.8547495186
C     0.9097466622     -2.9504706592     0.6251840444
C     -1.7115374009     -1.2510123086     2.6946989391
C     -1.2102589859     -2.1875365689     1.7371704502
C     -1.8178064671     1.1232633099     2.8078728123
C     -2.4246459548     -0.086325291     2.2314586113
C     -0.1486908009     2.6836577026     1.9980913474
C     -1.4908970819     2.2061848984     1.9089344478
C     1.815177256     2.3669565782     0.7363085276
C     0.5430175377     3.0477036202     0.7645667383
C     2.8908942287     0.4025811616     -0.2360043338
C     2.2334474246     1.6957477703     -0.4419143465
C     2.591704576     -1.9637273221     -0.9372723238
C     2.8168242575     -0.5799775709     -1.2508190495
C     1.8974548449     -2.512974461     -2.0470568995
C     0.1376535949     -3.2764432728     -0.5356797197
C     0.7122030876     -3.1907688653     -1.8519168673
C     -1.8561245069     -2.1799298504     0.4161852874
C     -1.2048868852     -2.8133428328     -0.6642984393
C     -2.956560573     -0.0407196932     0.963782038
C     -2.7735647821     -1.1363220333     0.074272392
C     -2.1903184974     2.2908487087     0.6170939899
C     -3.0063109201     1.2008854153     0.2001006299
C     -0.1294811355     3.2865278341     -0.3930215885
C     -1.5831714492     3.0573364151     -0.4508183781
C     1.5282944777     1.9747276373     -1.713883522
C     0.4573763416     2.9216203744     -1.6698407742
C     2.1943673393     -0.2861250048     -2.555391048
C     1.7167858373     -1.492667078     -3.0880944429
C     1.4963649785     0.9561485067     -2.7727451913
C     -0.2724785752     -2.6474890836     -2.7923921128
C     -1.4248720665     -2.3660449387     -2.0653880547
C     0.3707578748     -1.5986213648     -3.574481438
C     -2.9188513041     -0.6097099493     -1.2795708612
C     -3.1403781786     0.824258523     -1.1792308842
C     -2.207031138     -1.1797584674     -2.3594441885
C     -1.893751351     2.8166666672     -1.7852890218
C     -0.6401766786     2.8221862093     -2.5749209925
C     -2.6609531953     1.671326181     -2.2019335405
C     0.3354097908     0.8583798011     -3.628621826
C     -0.313986622     -0.4319225211     -3.8438900792
C     -1.7084391769     -0.282917491     -3.3899059617
C     -0.7127500145     1.8112384316     -3.5055014064
C     -1.9927035333     1.0905310517     -3.3187230231


