58

 C     1.2208347848     0.0644942051     4.2363612886
C     2.4144447962     -0.2279512146     3.5907899742
C     2.2792930009     -1.5505826183     2.8978730306
C     0.3279665323     -1.0929723806     4.0077812097
C     0.9496259069     -1.9844264506     3.0462523692
C     -0.9291406709     -0.6118858954     3.7509908222
C     0.4799700232     1.2520195353     3.8772440171
C     -0.9011644551     0.8493959754     3.7950624905
C     1.0050181465     2.1282531706     2.8340041387
C     3.0131005061     0.659306941     2.6798967045
C     2.2739578395     1.8009323742     2.2310138446
C     2.8778552608     -1.4355902155     1.6163969831
C     3.3909051593     -0.1044511373     1.4990708319
C     2.2800516211     -2.06244343     0.4923328809
C     0.2188310697     -2.4435390169     1.8810849273
C     0.99577043     -2.7174175237     0.6932122584
C     -1.6801901543     -1.0209749997     2.5817642882
C     -1.1572569058     -1.994972839     1.6731302624
C     -1.7492743321     1.2961665668     2.775891336
C     -2.3282949767     0.1368990801     2.0632888901
C     0.0505528785     2.7379551836     1.9529990405
C     -1.339699801     2.3695627525     1.9722955875
C     0.3416241728     3.0404730105     0.5662175328
C     2.4039160263     1.833045148     0.7740462166
C     3.0719708439     0.6344565477     0.3419066379
C     1.4592531394     2.4514681603     -0.0852436683
C     2.5303753983     -1.4741536012     -0.819531905
C     2.7175192494     -0.0231576077     -0.8789235442
C     1.9609615767     -2.1133188624     -1.9428860804
C     0.276116841     -3.1073008696     -0.4692640581
C     0.8834376615     -3.0314511286     -1.7361240088
C     -1.7727145224     -2.0278573188     0.3461133784
C     -1.1282618666     -2.7979279245     -0.6433263781
C     -2.7825607735     0.2256803025     0.7204022001
C     -2.6762611784     -0.9564886945     -0.0985751079
C     -1.9105286545     2.5337232116     0.6612138148
C     -0.9003181681     3.1329481222     -0.1602954627
C     -2.7836450098     1.5546504656     0.0840579953
C     -0.9217232382     2.9551085432     -1.5400630951
C     1.3522369031     1.9844863935     -1.4878981377
C     2.0224361107     0.7381994055     -1.8900482228
C     0.2248385736     2.3955796377     -2.2395585289
C     1.6151977256     -1.364591013     -3.1061737223
C     1.536012162     0.0319951024     -3.053247036
C     -0.1334400716     -2.8366141404     -2.7648447293
C     -1.3857406987     -2.6461282704     -2.0830698922
C     0.3276527279     -1.8597625004     -3.6409758223
C     -2.9541170679     -0.8340920054     -1.5141276514
C     -2.2444538884     -1.6549674846     -2.5205619522
C     -2.9775637662     1.6231087046     -1.3205459479
C     -2.0963264427     2.4097595935     -2.1197569652
C     -3.2111623209     0.4156299241     -2.0767340014
C     -0.2973795905     1.6295684772     -3.3825467512
C     0.3130887326     0.4485868134     -3.7596721045
C     -0.4877679027     -0.7571683539     -4.0212611936
C     -1.8480610618     -0.7628390889     -3.6133258799
C     -1.7404926379     1.6709051729     -3.3216811673
C     -2.4772756639     0.490668055     -3.352431947


