58

 C     1.5908004594     -0.0683620883     4.0155624364
C     0.8056662633     -1.2254305372     3.8201005983
C     1.4448538653     -2.0815613843     2.8592151794
C     2.6466485688     -0.1015165461     3.0612607736
C     2.6095440701     -1.347899026     2.3549495724
C     2.579673973     1.1116745421     2.2781057256
C     0.7516558478     1.061489784     3.6677756999
C     1.380965789     1.8661780431     2.6762435853
C     -0.5719694711     -0.8223810581     3.566727553
C     -0.5991282406     0.6371316957     3.4648237892
C     -1.3375139564     -1.5745263837     2.6922075646
C     0.6600633016     -2.8699778413     1.9710683613
C     -0.7669634905     -2.6847208656     1.9607769
C     1.2637667054     -3.2186560442     0.706706223
C     2.9253097326     -1.3882929477     0.9501741169
C     2.3486044099     -2.4230750208     0.1739633257
C     2.9414970471     1.0977887465     0.9396274238
C     3.1907314229     -0.1436677348     0.2576538069
C     2.3013307252     1.9977128939     0.0121771571
C     0.6047548164     2.5746640917     1.7293607021
C     1.1965002628     2.7919702913     0.3939891815
C     -1.4093655969     1.3069003443     2.5153072124
C     -0.8471228236     2.4655756198     1.8190272444
C     -2.2938410236     -0.9077548452     1.8299542073
C     -2.4010425068     0.4981387289     1.7954553656
C     -1.5084044559     -2.7746457321     0.7206787942
C     -2.433102295     -1.6841780468     0.6215802898
C     0.4623434121     -3.5914025116     -0.3965428544
C     -0.9065058054     -3.267731718     -0.4516891424
C     2.1725364365     -2.2996145305     -1.2860240452
C     1.0689423683     -3.096199449     -1.6275149998
C     2.8406323109     0.0515906565     -1.125244364
C     2.3477008088     1.3891126319     -1.2953813226
C     2.3486142638     -1.0265716162     -1.9428902517
C     1.4273999366     1.7411345123     -2.3392234906
C     0.3666326268     3.2712497314     -0.6733237629
C     0.4825311449     2.7604724199     -2.0572224185
C     -1.6124216884     3.0282061583     0.7567478398
C     -0.9697521807     3.5622929349     -0.4118731804
C     -3.0214762956     1.035111642     0.6208163292
C     -2.7706184215     2.3634364033     0.2672931544
C     -2.7743730095     -1.0917317754     -0.6430227053
C     -3.2088111226     0.2467525545     -0.5986578787
C     -1.2023587929     -2.6602054309     -1.7626744283
C     0.057430483     -2.6342986721     -2.5016803064
C     -2.1267016804     -1.5970403648     -1.8772836573
C     1.4835143321     -0.6970079441     -3.0192603822
C     1.0661624085     0.7046114149     -3.2730940442
C     0.3501380706     -1.5363892117     -3.324262226
C     -1.9226857047     -0.6553183911     -2.9722470991
C     -0.2345590766     0.6861995302     -3.798296503
C     -0.7233718615     -0.6835260286     -3.6969274858
C     -0.8529114838     2.7238391334     -2.6266598001
C     -1.7457562061     3.2213458565     -1.6218934592
C     -2.8227524951     2.4669779316     -1.2081587182
C     -3.0572631986     1.1534086345     -1.7402147585
C     -1.2502491397     1.5875560406     -3.3621506396
C     -2.3459238001     0.7511607883     -2.8659161889


