58

 C     1.3843507714     -0.1691916753     4.8762251853
C     0.5314579026     -1.2482194676     4.9339962704
C     1.1075650032     -2.4014949008     4.2608592263
C     2.4943376227     -0.5557577685     3.9481885067
C     2.3184257485     -1.8969780086     3.5418821504
C     2.5668484189     0.4270769248     2.9371463363
C     0.6686948995     0.906256476     4.2136030848
C     1.4379569035     1.3725535804     3.1477435165
C     -0.760878357     -0.8816838514     4.2910279006
C     -0.691268474     0.4752515102     3.8439500067
C     0.2096208255     -2.7518468489     3.2674834292
C     -1.008601087     -1.8795596024     3.3243771866
C     2.1793205352     -2.1913028767     2.1333581533
C     0.8906978812     -2.8293107161     1.9711724882
C     2.8360354312     0.0750443819     1.5828187818
C     2.5477803099     -1.2668603789     1.1075301323
C     2.6325217906     1.1170966079     0.6651705322
C     0.8269944797     2.0235975465     2.026229237
C     1.6922693982     2.1911548338     0.9349886394
C     -1.2335024853     0.8398650118     2.5626448163
C     -0.5802693839     1.8474156553     1.7279925432
C     -1.6081955816     -1.5462082721     2.1129275516
C     -1.9376886622     -0.1640775377     1.8023984788
C     0.1667102359     -2.7109732197     0.7954175017
C     -1.2530333591     -2.373897514     0.9565653573
C     1.9667711635     -1.4039122388     -0.2440787748
C     0.7980049853     -2.2211226638     -0.4241058624
C     2.5940383744     0.9017437364     -0.733551962
C     2.1767288142     -0.3609839281     -1.2503066452
C     1.239492569     2.7165708324     -0.2941494182
C     2.0389989921     2.1039349828     -1.3237596856
C     -1.0540239823     2.1454140923     0.3818103095
C     -0.1690008371     2.8542400121     -0.5471288916
C     -2.4583156105     0.1473227219     0.4899794581
C     -2.1452914348     1.3780567687     -0.2077471436
C     -1.9541008479     -2.1507209959     -0.1700399971
C     -2.8247176039     -0.9801624184     -0.3075914161
C     0.0054688467     -2.1511185685     -1.6541137176
C     -1.3934280411     -2.3922468211     -1.4967493661
C     1.5071754852     -0.3887182134     -2.5727860597
C     0.4427732866     -1.3697861884     -2.8169863766
C     1.6114538503     2.0958444064     -2.6124093819
C     1.4963555065     0.8292828746     -3.3402259329
C     -0.5422140869     3.0177680311     -1.9043618502
C     0.4648896819     2.9027060636     -2.9419696302
C     -2.4992482716     1.522839802     -1.6491132734
C     -1.7526826133     2.4374116998     -2.4555803818
C     -3.1254655941     -0.850982683     -1.654557816
C     -2.3323638795     -1.8714118218     -2.4130219923
C     -3.0818008008     0.3710896869     -2.351038263
C     -0.525757009     -1.0875118072     -3.8628947811
C     -1.9324935441     -1.2878571997     -3.5774220908
C     -2.6161616548     0.0284159568     -3.6951180299
C     0.5142993952     1.0800027111     -4.3582356985
C     -0.1137428874     2.4070363943     -4.1200389008
C     -1.4874386011     2.1640801514     -3.8776405116
C     -0.4794660602     0.1443812285     -4.5923612644
C     -1.7868883781     0.8604434951     -4.3884016755


