58

 C     1.6007273771     -0.068983924     3.8852127433
C     0.7924362047     -1.2825142177     3.7078842568
C     1.4197239251     -2.1459105707     2.7756645324
C     2.6444370654     -0.0941118164     2.9899141447
C     2.6522740358     -1.4217867705     2.3665472421
C     2.5603496115     1.1041417001     2.1287218684
C     0.7646214498     1.0735198652     3.5941198282
C     1.3912151004     1.8345844849     2.5439245216
C     -0.5499627799     -0.8597157104     3.5108068147
C     -0.5528762307     0.6215904434     3.3937318185
C     -1.3334832617     -1.5795852816     2.6230280426
C     0.6421445276     -2.8388625384     1.7833274714
C     -0.7693470631     -2.6443914328     1.8346869215
C     1.2417437422     -3.1131309601     0.4472680776
C     3.0954050985     -1.5077609864     1.0901141169
C     2.5289222946     -2.4972076901     0.1576167975
C     2.8928500388     1.0099458556     0.7614605735
C     3.4147374609     -0.2739190719     0.3200271036
C     2.2019698617     1.8701904591     -0.205101434
C     0.6001323423     2.5338538244     1.6114315086
C     1.1538760406     2.7583220363     0.2781065792
C     -1.3997800761     1.2878140644     2.4580754136
C     -0.8567486301     2.4369108546     1.7595455082
C     -2.3491435269     -0.915376934     1.8316188682
C     -2.4485147021     0.4971937292     1.7968813677
C     -1.6020359641     -2.7716838262     0.6539597622
C     -2.5641064738     -1.6961405099     0.6347709918
C     0.403175962     -3.3633397397     -0.6633080879
C     -1.0582392276     -3.2279391322     -0.5438772212
C     0.7363926517     -2.8801969568     -2.0099427903
C     2.8074353823     -2.0275601847     -1.1219120678
C     3.2712068722     -0.637961075     -1.0027841955
C     1.8856990843     -2.0919900825     -2.1946195587
C     2.1375046002     1.4432341614     -1.6102976616
C     2.5866328163     0.1515639871     -1.9641274594
C     1.74768944     -0.7556348394     -2.7550708867
C     1.1086447389     1.9697874181     -2.465704053
C     0.296716216     3.4146235083     -0.6739779196
C     0.3531863857     3.0640071308     -2.0693829089
C     -1.6613244484     3.0401817679     0.7426582387
C     -1.0600212169     3.6741290507     -0.3626634345
C     -3.1107365216     1.0576515504     0.6543615056
C     -2.8590903877     2.3816849092     0.2816809806
C     -2.9872415803     -1.0850665325     -0.6021212295
C     -3.3204674068     0.2878161175     -0.5621904785
C     -1.5707836309     -2.7141008861     -1.7650175842
C     -0.4628788272     -2.4804280967     -2.6555517119
C     -2.4510548014     -1.6067832306     -1.8248723145
C     0.5025916946     -0.3074569474     -3.2981029856
C     0.2439170709     1.0830759166     -3.2434478923
C     -0.6254177592     -1.205277177     -3.246520835
C     -1.9209618636     -0.6837217548     -2.821286352
C     -1.0043947153     2.9170058475     -2.5969644292
C     -1.8659518827     3.2903637638     -1.5716456071
C     -2.9435531582     2.4893069271     -1.1705037406
C     -3.0664185979     1.1688401391     -1.6923029972
C     -1.1051601913     1.6083459331     -3.1650104001
C     -2.1786641867     0.7088534305     -2.7588393431


