58

 C     1.5087504601     -0.0059049553     4.3585389914
C     0.6862279843     -1.1902571471     4.3316349175
C     1.3000522438     -2.1804868789     3.5319740643
C     2.5458373975     -0.2050388871     3.3811024227
C     2.4585687591     -1.5319933074     2.8962736073
C     2.4824533983     0.8424600362     2.3882500255
C     0.6811819466     1.0179396291     3.8056719241
C     1.3182865141     1.6430657488     2.6813660822
C     -0.6924901144     -0.8223345332     4.040634258
C     -0.6795408426     0.5968781484     3.6492267397
C     -1.4773687873     -1.6965194127     3.2937687224
C     0.557180921     -2.8280064601     2.4982153775
C     -0.8384288314     -2.7276272712     2.4635187288
C     2.4059896649     -1.7841567541     1.4999226973
C     1.2671650209     -2.6353157239     1.2315669594
C     2.7786708705     0.5948533467     1.0221990253
C     2.7370109191     -0.7681353946     0.5438091994
C     2.443727717     1.6507599325     0.1002924923
C     0.566308055     2.220342527     1.624223538
C     1.3162391722     2.5186844239     0.4220302741
C     -1.4551847941     1.0806775365     2.5391628623
C     -0.8586981343     1.997981034     1.5493103767
C     -2.5263492083     -1.1357714483     2.5021405926
C     -2.5040325593     0.2195541541     2.0894750251
C     -1.5252949537     -2.74501293     1.1817198428
C     -2.6577091995     -1.9030863137     1.2958530672
C     0.6171624634     -2.6230113952     -0.0319773122
C     -0.8297294535     -2.7479988071     -0.0770222751
C     2.3843494236     -1.0062338101     -0.8338691018
C     1.3257209716     -1.9884773117     -1.1410969936
C     2.7323854028     1.4039218041     -1.2625371796
C     2.6290565671     0.0371501166     -1.7474485971
C     2.1958750229     2.2427546636     -2.2763707203
C     0.6153357293     3.1180772611     -0.6449379354
C     1.1533235279     3.1001286355     -1.9676196711
C     -1.513132271     2.2291789674     0.2570267321
C     -0.8120745238     2.9188678183     -0.7474329024
C     -2.9671628492     0.2808226963     0.699446366
C     -3.058610068     -1.0683692829     0.2218557831
C     -2.5962018705     1.3121989569     -0.1791134658
C     -1.5328583818     -2.2779356141     -1.2670556603
C     -2.6939110564     -1.3890779104     -1.0999778107
C     0.6655560762     -1.9019266406     -2.3738886619
C     -0.7670501941     -2.0982637143     -2.4453416435
C     2.0142079713     0.0745398973     -3.0726431919
C     1.7660790866     1.4192999205     -3.4227386916
C     1.0425842627     -0.9093296456     -3.3985109662
C     0.0689207474     2.8775494     -2.9353980486
C     -1.1162475736     2.7568401015     -2.1965502941
C     0.4759514253     1.8522647438     -3.8793727025
C     -2.7788058381     1.0345103256     -1.5639044375
C     -2.8826021186     -0.3244674311     -2.0230917261
C     -2.0812303038     1.7990778918     -2.6092167337
C     -1.2391419767     -1.2673147264     -3.5225772889
C     -0.1051929264     -0.5251526278     -4.1113582304
C     -0.4706427111     0.8605386253     -4.2477128688
C     -2.2711259802     -0.376239449     -3.3146799555
C     -1.8093422306     0.9625274412     -3.7067656782


