58

 C     1.5159144153     0.0052698369     4.3608310714
C     0.6726922354     -1.1273630678     4.0350805969
C     1.411154625     -2.0402629546     3.2642535877
C     2.6718042452     -0.0947046703     3.4805824559
C     2.7068002294     -1.3675419248     2.8985189989
C     2.7079452239     1.0400358645     2.5949110394
C     0.8114336314     1.1475915205     3.9603053814
C     1.5453794938     1.8484108597     2.9276366083
C     -0.6092225307     -0.6856464141     3.528507624
C     -0.5421598086     0.7645598617     3.5935591194
C     -1.2304514975     -1.3104655321     2.3954693855
C     0.8681233672     -2.5926783099     2.1036125382
C     -0.5012966145     -2.3486492165     1.680502407
C     2.9173221317     -1.5484502907     1.5200071566
C     1.9226767056     -2.5180212094     1.0887686941
C     3.0801864004     0.8916852683     1.219096021
C     3.1984242213     -0.4455186728     0.6242673387
C     2.6509483657     1.95709954     0.3564299715
C     0.8429566093     2.6160972424     1.9250930945
C     1.4853749655     2.7968615532     0.6909169429
C     -1.2416001437     1.519571093     2.6698041543
C     -0.597611157     2.579745861     1.9015089566
C     -2.2041020111     -0.5220308378     1.6227655434
C     -2.2189966136     0.8898863806     1.8476250391
C     -2.7272976324     -1.0120417113     0.3593851528
C     -0.8351597934     -2.6415814651     0.2974981628
C     -2.0788807172     -2.1342669103     -0.3045703829
C     1.5967464418     -2.6608601007     -0.216972432
C     0.2372298531     -2.9527375583     -0.5955062704
C     2.8991591384     -0.6347938992     -0.8045541228
C     2.1862433209     -1.8097508856     -1.2306685224
C     2.6354361571     1.7846663385     -1.0196607125
C     2.6930166315     0.5127654811     -1.6324819934
C     0.7372788645     3.0578792264     -0.5348424846
C     1.503095079     2.5231918728     -1.5951403218
C     -1.3162162722     2.7153736166     0.6809700905
C     -2.431236549     1.792226281     0.7442205697
C     -0.6864655408     2.9380186707     -0.5934665706
C     -3.4135278545     -0.0568698725     -0.4953770448
C     -3.0394236915     1.3555832412     -0.3831854386
C     -3.6466285578     -0.2866729042     -1.8518394371
C     -2.2524221992     -2.2930815391     -1.7204667845
C     -3.1298885099     -1.430367399     -2.4825788827
C     0.1567415227     -2.6488180987     -1.9843699994
C     1.3115730634     -1.8365741952     -2.3526036324
C     -1.0825216403     -2.4557160197     -2.5670556267
C     1.7048116328     0.5238502105     -2.7065367296
C     0.9442712329     1.7852176044     -2.6279571958
C     1.0499687114     -0.6457246027     -3.1210795199
C     -1.31317448     2.4079029147     -1.8154030436
C     -2.6392796448     1.8378696202     -1.69567885
C     -3.1482837033     0.9079975344     -2.6195822931
C     -0.4716483807     1.823580557     -2.8672195534
C     -2.5098792407     -1.0399012196     -3.7328274996
C     -1.2111740304     -1.5636883008     -3.7077435325
C     -0.2406040498     -0.4902519242     -3.752019812
C     -2.3704182791     0.4084237572     -3.6710060618
C     -0.9751373822     0.7636698785     -3.6897329314


