58

 C     1.511088216     0.0501907106     4.0273187288
C     0.7638229235     -1.1276529375     3.9062405823
C     1.378787282     -2.0063439035     2.9434436321
C     2.5027349411     0.0451896436     2.9885264641
C     2.4447128069     -1.2187531257     2.3153505048
C     2.3956802853     1.2275656814     2.2091526613
C     0.6395673479     1.1708613905     3.7459631247
C     1.2775876055     2.0057588144     2.7824901599
C     -0.6348993537     -0.7433625646     3.698288483
C     -0.6932467907     0.7229214849     3.5157517051
C     -1.4354704691     -1.5358014324     2.932818682
C     0.5729248489     -2.8635800429     2.1524653164
C     -0.8851985122     -2.7420221024     2.2863018648
C     1.0661590795     -3.2200825585     0.8706358399
C     2.681394753     -1.291815154     0.9194466275
C     2.1651633894     -2.4735931107     0.2835298156
C     2.5919452736     1.2170625224     0.793122535
C     2.806928008     -0.0613906669     0.1244870717
C     2.0245997501     2.3371571002     0.0357861934
C     0.4714526184     2.7250737359     1.93339791
C     0.9574152073     3.0933513692     0.6259172722
C     -1.4747858782     1.2940764862     2.4496265629
C     -0.9371271915     2.4473929013     1.8185021876
C     -2.4101035778     -0.9379074286     1.9993207949
C     -2.3568461363     0.4340503731     1.6353697713
C     -1.7014487943     -3.0184157297     1.1941650478
C     -2.6557637078     -1.9283966268     1.0261902297
C     0.1766169709     -3.5842001311     -0.2431978862
C     -1.2225915912     -3.3848991057     -0.1013262461
C     2.0404426559     -2.5435693357     -1.1254013935
C     0.8033301351     -3.2265315118     -1.4526975832
C     2.5711168524     -0.1390668138     -1.3226922673
C     2.1359231617     -1.3912497584     -1.9081459152
C     2.0330419228     2.2864139482     -1.3937150908
C     2.2306264851     1.0109847603     -2.0543286369
C     1.1167949875     3.028783587     -2.1654640081
C     -0.1813546359     3.4550365829     -0.1560914639
C     -1.32857452     2.8444808177     0.4923079597
C     -0.0920937812     3.5114680007     -1.5587274211
C     -2.6855225515     0.7947077977     0.2418880722
C     -2.2619005005     2.0959810593     -0.2846813064
C     -2.7784186136     -1.628602641     -0.3295415385
C     -1.9090496024     -2.5738566047     -1.0723411999
C     -2.9167993388     -0.2779328173     -0.7248439367
C     0.1350961153     -2.4618942691     -2.4408291672
C     1.0330167455     -1.4129022732     -2.8762591919
C     -1.2656530509     -2.1406432459     -2.2692017447
C     1.3451165794     0.9683400617     -3.2367629362
C     0.7321379787     2.2280737027     -3.3209552878
C     0.56615762     -0.2368174209     -3.4838199639
C     -1.2153939     3.1247410614     -2.3334195834
C     -2.2324597464     2.3340606879     -1.7233267227
C     -0.6848276117     2.3400737562     -3.4726966885
C     -2.6532849114     -0.0405785903     -2.1188728457
C     -1.7208179823     -0.9306977657     -2.8459607313
C     -0.8744333938     -0.095361383     -3.6575301988
C     -2.5035465413     1.2356293983     -2.619084013
C     -1.4597698526     1.2084936363     -3.6558908419


