58

 C     1.2706332896     -0.1020929828     3.9173329817
C     2.4690769218     -0.2934926099     3.2372339907
C     2.4736587118     -1.6006943217     2.6200085323
C     0.4300340817     -1.2797229012     3.7202723
C     1.1603811653     -2.1996310667     2.8783879413
C     -0.845471303     -0.8356936346     3.3425953318
C     0.4824134313     1.0769495089     3.7104897466
C     -0.8572367366     0.6430005858     3.3827992998
C     1.053310674     2.1395997945     2.965143594
C     2.9272004131     0.6754608944     2.2510560383
C     2.2822157263     1.8949413693     2.1458853495
C     2.9112262567     -1.4631818531     1.2973645457
C     3.253540672     -0.0523638222     1.0468494536
C     2.325426186     -2.272167306     0.2374535153
C     0.496576564     -2.8447382103     1.8523619297
C     1.121562683     -3.0103301541     0.5398315645
C     -1.5856568277     -1.5426549087     2.3197850671
C     -0.9153094156     -2.6122421756     1.6295013064
C     -2.5554151985     -0.8153036302     1.5870125637
C     -1.677926696     1.3771986185     2.4767715833
C     -2.6110223696     0.6476868175     1.6632957572
C     0.210779517     2.9412405395     2.1941034079
C     -1.1360649636     2.5889016934     1.9157302947
C     2.0693052242     2.4926921711     0.8335901707
C     0.8591789783     3.2476315046     0.9163043922
C     3.0567578268     0.5120351637     -0.2322068104
C     2.394578     1.8137198218     -0.3738299182
C     2.4976116289     -1.813542755     -1.0705442868
C     2.9429030367     -0.4313590089     -1.3120492598
C     1.5669848998     -2.1636708249     -2.1274777671
C     0.0928069125     -3.1326531454     -0.4258871389
C     -1.1821611885     -2.8729236451     0.2495710532
C     0.2911956298     -2.7456193766     -1.7953550146
C     -2.9612898508     -1.2131721597     0.2753968201
C     -2.2494832919     -2.2418470466     -0.4352610816
C     -3.0304283165     1.1266697031     0.3981541195
C     -3.4044698355     -0.0247609989     -0.4234704604
C     -1.3834464668     2.9129990214     0.5230611645
C     -0.088148711     3.2484187586     -0.0907297702
C     -2.3555982408     2.2423943358     -0.2226270262
C     1.5490808482     2.0778660057     -1.5640189371
C     0.2622161224     2.7631146982     -1.3986824291
C     2.4033971078     -0.0281324762     -2.5194804737
C     1.6265373069     -1.1281824045     -3.0969311017
C     1.6499307815     1.1774345714     -2.6611609102
C     0.4884144985     -0.6182306718     -3.7227223363
C     0.5145047696     0.8648521701     -3.5201483386
C     -0.8446056624     -2.3223716432     -2.5465424533
C     -2.1453127058     -2.1156009231     -1.8729735145
C     -0.7335242392     -1.3247435325     -3.5870983537
C     -3.349414558     0.0395009159     -1.8027332059
C     -2.8323862877     -1.0909073253     -2.5397965227
C     -1.9523037418     -0.5705755467     -3.5823696236
C     -2.1619907959     2.2025239683     -1.6655257271
C     -0.8271816844     2.4466847872     -2.2391214631
C     -0.6812784414     1.5408059145     -3.3546663553
C     -2.8287702897     1.2502684067     -2.4455106336
C     -1.9375420469     0.8180113515     -3.4984229012


