58

 C     1.5427009671     -0.0336459313     4.042979211
C     0.7518905707     -1.2541437683     3.8381489612
C     1.3956423531     -2.0300790096     2.8384707949
C     2.6237131097     -0.0091733547     3.1779465941
C     2.65177625     -1.3141546851     2.5372750602
C     2.4453591495     1.1614881872     2.3069383333
C     0.6875679343     1.0998248283     3.8477530175
C     1.2308737555     1.8568304984     2.7590340257
C     -0.6069245931     -0.8649247326     3.7091524181
C     -0.6536960282     0.6191040821     3.7575864145
C     -1.3776865151     -1.4996992532     2.7290947196
C     0.6396621819     -2.5994994049     1.7413650012
C     -0.7642170471     -2.3901747842     1.7790683243
C     1.2874127562     -2.8010897659     0.4194346972
C     3.1487345472     -1.3878915612     1.2836892542
C     2.6371798901     -2.3405986421     0.309705515
C     2.779271893     1.0942592409     0.9449713315
C     3.4551528202     -0.1350476996     0.5360749283
C     1.9890064581     1.8164657694     -0.0725852679
C     0.3822110015     2.4593020082     1.807578644
C     0.8338878966     2.5657320801     0.4000763182
C     -1.5283293311     1.2983183204     2.9222050896
C     -1.037249801     2.3406835561     2.0629133671
C     -2.4332373727     -0.7840240616     2.0245271128
C     -2.5569123726     0.5927839413     2.1546563187
C     -1.5452831061     -2.3299188532     0.5507504101
C     -2.598331223     -1.3714146644     0.7120640933
C     0.4781924526     -2.8550395934     -0.8102761238
C     -0.9730679376     -2.6003747076     -0.7166414177
C     1.106950692     -2.531352182     -2.0634409528
C     3.1525427314     -1.8969595584     -0.9327754693
C     3.5470958791     -0.4648789801     -0.7875038492
C     2.432588019     -2.0143707203     -2.0828976349
C     2.0486422117     1.4084888488     -1.479261289
C     2.8822023255     0.2785871855     -1.8223272154
C     2.3831169706     -0.6818387405     -2.739714741
C     0.953056041     1.7222984285     -2.404708708
C     -0.1080768805     2.9902065157     -0.5570336876
C     -0.0067435995     2.6690177572     -1.9506176963
C     -1.9740257352     2.4912737616     0.9961678445
C     -2.9001820508     1.3866504937     0.9957064246
C     -1.5489167522     3.0451170911     -0.2146080194
C     -3.1391743745     -0.6432157335     -0.3886802486
C     -3.3395678489     0.8121457407     -0.2376877636
C     -1.7047622539     -2.0796827886     -1.8274704997
C     -2.8088049039     -1.1751246724     -1.6715471977
C     0.3898346619     -1.7632019333     -3.0626722252
C     1.1492563839     -0.5480038076     -3.3708965297
C     0.4963093252     0.7284306765     -3.4104088399
C     -0.99199765     -1.6917826345     -3.0554805449
C     -2.8075447444     -0.2939756433     -2.8250610929
C     -0.8847434439     0.6767304528     -3.7892386353
C     -1.6005897438     -0.5602605495     -3.6149103618
C     -1.3501080667     2.6583249485     -2.4867347717
C     -2.2923674291     2.7616732147     -1.3516981188
C     -3.1938585471     1.6512886255     -1.4047475736
C     -1.7907239671     1.701064114     -3.3536718955
C     -2.9847079098     1.0594520598     -2.7000358735


