58

 C     1.3231660899     -0.0524892403     4.3754545347
C     2.5158150439     -0.1270823968     3.6069003703
C     2.499005269     -1.3941343647     2.9237979738
C     0.4825803241     -1.2212340686     4.0856321482
C     1.2155083176     -2.0353698467     3.1932571067
C     -0.7983142751     -0.7056683159     3.6416661584
C     0.5307147362     1.1111425343     4.3236175158
C     -0.8248281563     0.6891519033     3.9065813127
C     0.9112249248     2.1723126596     3.4856192936
C     2.8059990971     0.8809183434     2.6140530091
C     2.0018326317     2.0305333691     2.5442405114
C     2.9228797615     -1.2309423129     1.5823989366
C     3.0910726841     0.1895689315     1.3563617151
C     2.3963740203     -2.0661668933     0.5410647405
C     0.5589349197     -2.6456601637     2.1127992091
C     1.2234886003     -2.853467776     0.8537913092
C     -1.4517186302     -1.2127120646     2.4391387954
C     -0.8286277348     -2.3449278395     1.8171850275
C     -2.1990554703     -0.3173792238     1.5679061106
C     -1.2973169332     1.5771791775     2.9106251086
C     -0.2490888661     2.5324365912     2.6948099668
C     -2.0224146832     1.1116870731     1.7749428571
C     1.5312163356     2.5123036951     1.2249735037
C     0.138836799     2.8736269751     1.3818736255
C     2.776253959     0.7470652118     0.0796669688
C     1.9316110614     1.9525330871     0.0009414741
C     2.4993243991     -1.5815027725     -0.7734952266
C     2.7056988017     -0.1489636588     -1.0055842095
C     1.6702856448     -2.0507125462     -1.8365413506
C     0.2303521589     -3.0445739479     -0.1535255413
C     -1.0506830481     -2.6558520172     0.4435274368
C     0.4697256408     -2.7911112219     -1.5144162046
C     -2.6226446576     -0.7814126914     0.2337393783
C     -2.0323619588     -2.0077647072     -0.3322992728
C     -3.1073997785     0.1589105114     -0.6896885928
C     -1.991849237     1.9569105046     0.6073207908
C     -0.7740926686     2.7306309143     0.3320167765
C     -2.74726078     1.5469634501     -0.4960308706
C     1.0987790114     2.1820569314     -1.1942429671
C     -0.2392815784     2.7212901024     -1.0068516375
C     2.0967380423     0.1958139504     -2.2478468285
C     1.6104176683     -1.0308175113     -2.849529988
C     1.3389426663     1.4038360536     -2.4008394778
C     0.5803528615     -1.0081411934     -3.8031469674
C     -0.6800462866     -2.5700656002     -2.3440849162
C     -1.9328569594     -2.1524386173     -1.7497018347
C     -0.5585485164     -1.894427508     -3.5827941966
C     -3.157169157     -0.0725431897     -2.1518780361
C     -2.5926697154     -1.2424549427     -2.6865009181
C     -1.7603209644     -1.1532806721     -3.863472101
C     -2.4875285968     2.1054076756     -1.7654313222
C     -1.189824332     2.6378673897     -2.0659709822
C     -2.8944495175     1.1887282788     -2.8120993028
C     0.3774277854     1.4189579566     -3.4987298975
C     0.1016171236     0.2311716976     -4.2840297738
C     -1.360192967     0.1152373188     -4.3628799485
C     -0.8401237507     2.1324999902     -3.3411495708
C     -1.94550718     1.286555037     -3.8431417602


