58

 C     1.261593827     -0.0184921776     3.7970659906
C     2.4971890085     -0.2928661862     3.2260246626
C     2.5034773927     -1.66786533     2.7148962198
C     0.426763962     -1.1894511874     3.5538258821
C     1.1560338631     -2.1685417405     2.8059464611
C     -0.8435996016     -0.7757354172     3.143144253
C     0.5054732631     1.1319355557     3.3879567393
C     -0.8426621601     0.6835090918     3.0873568822
C     1.0933875965     2.0605279119     2.5161964784
C     3.076930037     0.5892588573     2.2467663344
C     2.399023898     1.7952104255     1.9417191958
C     3.1632656473     -1.6520991198     1.473520741
C     3.5526495389     -0.2453683849     1.1673640988
C     2.7041657559     -2.4779671502     0.4477245909
C     0.5218631006     -2.8055233127     1.6749896554
C     1.4048540547     -3.1414060415     0.5870084532
C     -1.5770844473     -1.5214751532     2.1679549054
C     -0.8884179941     -2.5251078162     1.3645625969
C     -2.6917417242     -0.8226930106     1.6361409502
C     -1.6967586651     1.3808747974     2.1930880038
C     -2.7534251769     0.6198328452     1.6428834294
C     0.2709494861     2.7255487301     1.5095508139
C     -1.1374133078     2.5075048216     1.4141712443
C     2.3357335704     2.2519403004     0.5703286255
C     1.0564411585     2.9114737181     0.3342187508
C     3.4848996554     0.2056531667     -0.1517657363
C     2.8915187604     1.4954190647     -0.4535406658
C     2.7897481902     -2.0385707517     -0.9345602856
C     3.1065096894     -0.6935760173     -1.2199252191
C     0.8875063523     -3.3398510816     -0.715203407
C     1.7286935205     -2.6495316446     -1.659401036
C     -1.3757333375     -2.7220744605     -0.0168529652
C     -0.4522349668     -3.0611604999     -1.0361624422
C     -3.2610576094     -1.2249021207     0.4007973827
C     -2.5593135934     -2.0414409284     -0.4719231286
C     -3.4538249909     1.0674403807     0.4154315435
C     -3.7990684027     -0.0720724096     -0.3236368668
C     -1.7447984157     2.8695026851     0.1912660368
C     -2.989255333     2.2087514099     -0.2796235049
C     0.4589720511     2.9798063929     -0.9528741542
C     -0.9563031763     3.1972419667     -0.9600483176
C     2.2033698552     1.3960325447     -1.7293339612
C     2.3347107568     0.0464302201     -2.2007576685
C     1.0627450276     2.1918137133     -2.0419532933
C     0.9156944662     -1.9414134074     -2.5771714426
C     -0.4500601598     -2.2748246413     -2.2822044336
C     1.2505304682     -0.5735749432     -2.9188153369
C     -2.6637355525     -1.4043405751     -1.8142737077
C     -3.4986935003     -0.2103954425     -1.7128705843
C     -1.5269699707     -1.4198116643     -2.6550869349
C     -2.9861985333     2.1820618955     -1.6839657442
C     -1.7337256998     2.8242186422     -2.1147728224
C     -3.1548950429     0.9560706465     -2.432519843
C     0.1927832255     1.6609345729     -3.0473683674
C     0.2144380437     0.2639184063     -3.3625575609
C     -1.1961038796     -0.2078117877     -3.3926951696
C     -1.1802766999     2.0795801069     -3.1255693555
C     -2.0385632912     0.8974515235     -3.3444669363


