58

 C     1.407537645     0.2046325567     4.2091194092
C     2.609755544     0.220916497     3.4578275268
C     2.5884389191     -0.9663462942     2.6203338611
C     0.6032614348     -0.9489597079     3.7586993954
C     1.3255016651     -1.6509657469     2.7715117255
C     -0.7492959645     -0.52473759     3.4760262808
C     0.5632887477     1.3228450956     4.1894644464
C     -0.7971220315     0.8609915411     3.7524681874
C     0.8888861663     2.4505661914     3.4256384795
C     2.9194186716     1.328590475     2.597572114
C     2.0571932123     2.463322581     2.5792816347
C     3.0612887311     -0.6921936904     1.3307331517
C     3.3361004658     0.7561489021     1.3091801308
C     2.5212736816     -1.36620171     0.1993907613
C     0.6648342285     -2.1990340299     1.6278668259
C     1.3599110682     -2.2505806545     0.366330547
C     -1.4497716939     -1.0492575922     2.3655885047
C     -0.8100254239     -2.1338983219     1.6114113671
C     -2.3114507465     -0.1735899211     1.5942113034
C     -1.3109395375     1.7407923863     2.7793085131
C     -0.2675401058     2.7239415313     2.5724318255
C     -2.0406198075     1.2524735234     1.6725417624
C     1.6088656402     2.9689725121     1.2822240753
C     0.1435698446     3.0747452614     1.2785231504
C     3.1092457455     1.4211026594     0.1249034013
C     2.1968241365     2.5613806549     0.1061672946
C     2.693317999     -0.7336312214     -1.0989306898
C     2.8949560075     0.6864144169     -1.0961199237
C     2.0389007068     -1.2828192162     -2.2351027144
C     0.6345993823     -2.7347511448     -0.8158267126
C     1.0492096456     -2.3599820929     -2.1114498133
C     -1.4771355809     -2.6316433149     0.5140223494
C     -0.7580689118     -3.1215183788     -0.6557622403
C     -2.9972196594     -0.7016436119     0.431917991
C     -2.7359468388     -2.0664825606     0.0547616242
C     -3.3578851425     0.2109154168     -0.6140022213
C     -1.8936409678     1.9526234381     0.3953614785
C     -0.6473615826     2.700732255     0.146847178
C     -2.58395212     1.443972632     -0.6968364664
C     1.428070437     2.4644924854     -1.1096804767
C     2.0793231449     1.502651496     -1.9707010051
C     0.0032650408     2.5580497234     -1.1461216894
C     1.5999156354     -0.449219919     -3.2802016439
C     1.4103684299     0.9377865097     -3.0367074812
C     0.0846347736     -2.2318675291     -3.2083897936
C     0.3743816415     -0.9898421626     -3.8375131043
C     -1.6554642005     -3.1178455791     -1.7299837716
C     -2.915470164     -2.4976909968     -1.2846730381
C     -1.2793604411     -2.5667906982     -3.0052180651
C     -3.5520404284     -0.2479263052     -1.9473964801
C     -3.3054177346     -1.5880350047     -2.2761772977
C     -2.2903478193     -1.6238691203     -3.368216576
C     -2.0952470486     1.5702616642     -2.0658777207
C     -0.7115588954     1.9425986935     -2.2774679458
C     0.0013082946     1.2301408716     -3.2759861221
C     -0.5910815657     0.0519457473     -3.9249343297
C     -2.721154376     0.577436845     -2.8308222272
C     -1.952327918     -0.280120448     -3.7015667365


