58

 C     1.576240221     -0.1846705656     4.4322023057
C     0.8129067991     -1.3087177916     4.5222010104
C     1.253811717     -2.2642492256     3.5035058617
C     2.5272812262     -0.3597803358     3.3253630039
C     2.3465505813     -1.6701090182     2.7355337654
C     2.3722172395     0.7501982936     2.4950802702
C     0.7036150414     0.97096323     4.1317152649
C     1.2215978481     1.5828201252     2.9884533369
C     -0.603313935     -0.9520129404     4.2590157837
C     -0.6679136454     0.4818600837     4.0845510946
C     0.0954840742     -2.6429831312     2.8154509208
C     -1.0684894523     -1.7924357048     3.2336204842
C     0.1970709842     -2.9597890722     1.4598176312
C     2.3595252763     -1.7898751992     1.3152488592
C     1.3902192219     -2.6633122284     0.7180082613
C     2.569481259     0.6567151409     1.1001852714
C     2.6731100343     -0.6374075012     0.4798017472
C     2.1281645359     1.7888630646     0.2993817777
C     0.3611068202     2.1959423908     1.9990658025
C     0.8923907038     2.4609930311     0.669121572
C     -1.496228324     0.9662926942     3.0720164156
C     -1.0247247034     1.9863480572     2.1531952541
C     -1.9722616305     -1.3105934254     2.2081384184
C     -2.2826878266     0.0706898997     2.2539555391
C     -0.9345961025     -2.8338103725     0.5774674776
C     -2.0114963059     -1.9582206262     0.8823921616
C     1.0291870475     -2.5958352593     -0.6732835518
C     -0.4047909966     -2.8949817464     -0.7552739561
C     2.5118393278     -0.7061212216     -0.9762765715
C     1.620225934     -1.7205432273     -1.5883576823
C     2.5244897731     1.7731041775     -1.034782949
C     2.7370824617     0.4680584822     -1.697023035
C     1.861926952     2.5912655088     -1.9799314238
C     0.0004683635     2.8664197295     -0.4072794632
C     0.5318994028     3.0063050229     -1.719223106
C     -1.8518418186     1.9604710127     0.9710751624
C     -2.6289854887     0.767697145     1.0281322301
C     -1.4248379714     2.5053698147     -0.2615488776
C     -2.6898413033     -1.3205418794     -0.2535280103
C     -3.0169823452     0.1089593016     -0.1569928887
C     -1.1453047392     -2.4763899478     -1.8124686629
C     -2.4087286209     -1.8042847054     -1.5664531967
C     0.8991743749     -1.4227131847     -2.8524599905
C     -0.4828620977     -1.8724057939     -2.9726881883
C     2.2795733746     0.6089667686     -3.0591585155
C     1.8854505685     1.9322825078     -3.2689081233
C     1.2468940808     -0.2721574074     -3.5966945083
C     -0.2742361757     2.6399118674     -2.9244200568
C     0.56621272     1.9364050823     -3.8336139007
C     0.2226367613     0.5820168241     -4.2150314943
C     -2.1701672286     2.1038175332     -1.3962031914
C     -3.0101099433     0.9303928823     -1.3319137591
C     -1.6017453799     2.1950651241     -2.7494348991
C     -2.6252107156     -1.0057337947     -2.7263641382
C     -1.4392092952     -1.0976583017     -3.6321205108
C     -1.1277776286     0.2013195557     -4.1378889072
C     -2.9629528261     0.3282274707     -2.6311244076
C     -2.0705382158     1.0995917957     -3.5032486877


