58

 C     1.5567841179     0.0378842288     3.9578858301
C     0.7390307436     -1.1457880814     3.8605744118
C     1.2981866331     -2.0503202324     2.9086383861
C     2.4663389372     -0.0087554523     2.8886420776
C     2.3695658048     -1.3095468034     2.2639544537
C     2.2316517709     1.1401818211     2.0360652092
C     0.6831621024     1.1572898832     3.7374800523
C     1.1584329134     1.924817581     2.6297931417
C     -0.6460632266     -0.7654756581     3.7643539463
C     -0.6819611163     0.7140101922     3.7450104478
C     -1.4654713944     -1.4721786694     2.8744614971
C     0.4534433613     -2.868490577     2.0975889755
C     -0.9560432323     -2.5912583463     2.1105876235
C     1.0229264565     -3.336496813     0.8736653293
C     2.6624752502     -1.4617346736     0.8887967881
C     2.1801818426     -2.6445424529     0.2779913196
C     2.4031457631     1.0786783729     0.629457649
C     2.8409321499     -0.2305036969     0.0614187521
C     1.7360490747     2.0705291382     -0.1942802816
C     0.2578942673     2.6217818389     1.7936222986
C     0.6672913537     2.8898339901     0.4087992168
C     -1.5702594472     1.3702657523     2.9044662431
C     -1.1353482962     2.4659209546     2.0781508278
C     -2.4333206438     -0.7657329173     2.0361170071
C     -2.5322576714     0.6151964123     2.0892238399
C     -1.6863587929     -2.6171500479     0.8627338916
C     -2.5088755989     -1.4346253465     0.7557094352
C     0.1946634524     -3.6699442663     -0.2126338129
C     -1.1407498579     -3.1743122902     -0.2877483843
C     2.1032883263     -2.7533908644     -1.1588660318
C     0.8575325471     -3.3786276528     -1.4684760801
C     2.8435456095     -0.378967763     -1.3139275191
C     2.5156286891     -1.6661944794     -1.9452647055
C     1.7782146413     1.9100313553     -1.6540933016
C     2.3548283782     0.7005419916     -2.1824786511
C     0.8141577567     2.5605750694     -2.4777686253
C     -0.3025769885     3.4766587967     -0.4359929204
C     -0.1710145061     3.41798799     -1.8637973028
C     -2.074628461     2.5865757091     0.9914859351
C     -2.8252182097     1.3480410103     0.8992009884
C     -1.7329915216     3.2817028118     -0.1416037684
C     -2.6474987119     -0.7318574998     -0.4716573993
C     -2.93588021     0.7029171346     -0.3837469072
C     -1.31031504     -2.5136095556     -1.5756180791
C     -0.0702211555     -2.7519352652     -2.332543276
C     -1.9961160054     -1.2872875473     -1.6850741463
C     1.7593859804     -1.3530293145     -3.0964562726
C     1.7700291919     0.0880740446     -3.3047561738
C     0.4072974835     -1.7745385683     -3.2218101969
C     0.110621474     1.8055165243     -3.5131356913
C     -1.6116520095     -0.3631456788     -2.790589927
C     0.5012674927     0.5089655438     -3.7845071808
C     -0.4092599743     -0.6084652048     -3.5217632003
C     -1.4337924888     3.1777557604     -2.4431483957
C     -2.3498042896     2.8844835137     -1.3797347914
C     -2.7471375504     1.5328962378     -1.5267320772
C     -1.2969135674     2.044422245     -3.3082137813
C     -2.0662235875     0.9943698149     -2.7494566836


