58

 C     1.453931659     0.012595684     4.2120512428
C     0.6766004594     -1.1772645276     3.9239642413
C     1.4742102861     -2.0758090895     3.2038104619
C     2.6502943117     -0.0546473264     3.3777492391
C     2.7008232328     -1.3204613578     2.7978760585
C     2.6569180805     1.063739223     2.4679599809
C     0.7127791745     1.0952854075     3.7336499629
C     1.4955352063     1.8679943164     2.8022628959
C     -0.5837321028     -0.8017872068     3.3249505819
C     -0.5883235077     0.6492603746     3.2394631636
C     -1.1437720201     -1.5453426007     2.2567829291
C     0.9839209117     -2.7652285492     2.0849782866
C     -0.3775069251     -2.6435468818     1.660247892
C     2.8924825156     -1.5410954185     1.4033420395
C     2.0124749238     -2.6482171078     1.0415916146
C     2.965265001     0.8856014063     1.0697117285
C     3.0343162704     -0.4554765307     0.482043672
C     2.5447884783     1.9304229228     0.2245399946
C     0.8579668179     2.6781025149     1.8533335908
C     1.653222899     2.9661680834     0.6981251403
C     -1.2427636381     1.3419662377     2.2049785158
C     -0.6024601598     2.5563156428     1.6636416429
C     -2.1381792788     -0.8583909739     1.4408741066
C     -2.195163863     0.5918934682     1.3901291558
C     -2.6841268615     -1.5998865116     0.3500392499
C     -0.6935034921     -3.0852669544     0.3038806128
C     -1.9237342338     -2.6907193235     -0.2661473025
C     1.7186080536     -2.8909162845     -0.2555922793
C     0.3827395553     -3.3503904103     -0.6246882777
C     2.6170808443     -0.661219435     -0.9251707043
C     2.160380148     -1.9597344844     -1.2822403396
C     2.2839799003     1.7520605995     -1.2096713666
C     2.1543560912     0.4432493469     -1.7641474596
C     1.0602465046     3.5567290733     -0.4323013743
C     1.4729636101     2.8137139911     -1.6485663508
C     -1.1557575693     3.1184782094     0.4992292204
C     -0.2995653108     3.7384202887     -0.4930624104
C     -2.7876037572     1.241772681     0.2170043433
C     -2.2236984222     2.4651111937     -0.2198016992
C     -3.4527395723     -0.9663588974     -0.6419403771
C     -3.4494502685     0.4336016758     -0.7838822791
C     -2.1226545866     -2.5946283158     -1.7085423066
C     -3.1071400619     -1.5886418802     -1.9368191897
C     0.2255898477     -3.0685776374     -1.9938949022
C     1.2845735032     -2.1447838098     -2.3731305807
C     -0.9921538725     -2.6190642324     -2.5591132702
C     1.1254603632     0.2539075621     -2.8079442503
C     0.7133455613     -1.0794912536     -3.0999274406
C     -0.6863634837     -1.4338063289     -3.3730959557
C     0.3447602173     2.6147930243     -2.4689062912
C     -0.7526417638     3.3059035341     -1.8166423922
C     -1.9624125754     2.6548453327     -1.6607510368
C     0.1374787882     1.3200383552     -3.0772256098
C     -3.2344089212     0.68781702     -2.2054852995
C     -2.9183673494     -0.5786346525     -2.8612690984
C     -1.6286409664     -0.42139046     -3.5090293769
C     -2.2872619902     1.6248729205     -2.5848080623
C     -1.212966682     0.9561183423     -3.3444142805


