58

 C     1.3277606917     -0.05572736     3.6499791339
C     2.5147905833     -0.4069437556     2.9776583615
C     2.4491311929     -1.8429159988     2.6278151444
C     0.4755386349     -1.2821957346     3.6806531602
C     1.1759947241     -2.3469604499     3.0281636325
C     -0.8154069036     -0.9201553267     3.3110643556
C     0.5544150803     1.0413600005     3.2694453967
C     -0.8243951333     0.5502625531     3.2776483665
C     0.9694238284     1.9147013953     2.1883317396
C     2.909314967     0.3240280375     1.8611583377
C     2.210254142     1.540112386     1.5197887765
C     2.9124437326     -1.9851350144     1.3004236343
C     3.2384977379     -0.6668557563     0.7915650422
C     2.2508169974     -2.885703945     0.4304441718
C     0.4406301634     -3.1431641318     2.1057287412
C     1.086476899     -3.5455312566     0.9152492243
C     -1.555927875     -1.6427447252     2.2739097258
C     -0.9321832127     -2.7803057307     1.7370176146
C     -2.5566561786     -0.9020677089     1.4636392213
C     -1.7701842493     1.1933137637     2.579134817
C     -2.8100347639     0.4493968307     1.8511142111
C     -0.050777007     2.6423453618     1.434410751
C     -1.4320071696     2.3974560754     1.7991347577
C     0.2014306796     3.1202548979     0.0754028294
C     2.4016963572     1.9893280916     0.2035064537
C     1.518634341     2.8953361307     -0.4425741933
C     3.0733823343     -0.3425606457     -0.5520051184
C     2.9587732338     1.0750523264     -0.827241387
C     2.0237377922     -2.5313518511     -0.9674971457
C     2.4287710773     -1.2909271177     -1.4939973986
C     0.111815753     -3.5965493173     -0.1640907335
C     -1.1136998422     -3.0926130998     0.3076085254
C     0.7088334226     -3.0759608226     -1.3379202489
C     -2.7904008719     -1.2592061162     0.0583473916
C     -1.9379877189     -2.2906232103     -0.5432252764
C     -3.341767683     -0.2717378509     -0.8294017895
C     -3.3537284438     1.3815761118     0.9538002658
C     -2.469424273     2.5814872483     0.8990959043
C     -3.669135515     1.0285290159     -0.3429451977
C     -0.9130825075     3.2014015606     -0.9149830775
C     -2.2448515704     2.9114984796     -0.4712464832
C     -3.0836226301     2.0332815675     -1.2374280316
C     -0.646953017     2.8591904134     -2.2901961551
C     1.7519282433     2.7350062619     -1.8613074434
C     2.5715648921     1.5289244969     -2.0616611138
C     0.7011322186     2.6598540073     -2.7261792345
C     1.6985547977     -0.7357308723     -2.6693572247
C     1.8784314298     0.6495462464     -3.0016614727
C     0.8022431093     1.4084529779     -3.5225502654
C     -0.1018737799     -2.3991608697     -2.2272627156
C     -1.4716386492     -2.1085263489     -1.882394203
C     0.4277949752     -1.2995400905     -3.0044640134
C     -2.8009206393     -0.0797594789     -2.1727574598
C     -2.6074229881     1.3670373156     -2.3792404259
C     -1.4303789951     1.8450951895     -2.9648926575
C     -0.5026882282     0.8938573379     -3.6080420941
C     -1.8529807816     -0.9543448279     -2.6673591012
C     -0.6940834547     -0.4826865867     -3.407358006


