58

 C     1.5172233046     -0.1725205463     4.5089564401
C     0.6637711821     -1.3024764164     4.5063874276
C     1.1919645321     -2.2721318667     3.5483838725
C     2.5450378077     -0.4121735177     3.5718565866
C     2.3757827458     -1.7505822764     2.9568687681
C     2.6525623583     0.7254860971     2.697392744
C     0.7532958841     0.9679762482     3.9765622077
C     1.4732217297     1.6113080261     2.9432705509
C     -0.5862003492     -0.9047506066     3.971316339
C     -0.5822661183     0.5312524578     3.6966669693
C     0.1172618093     -2.7252339837     2.700571296
C     -1.0216950419     -1.8285731133     2.9382210241
C     0.3982417239     -3.0457538327     1.3895484661
C     2.6064396059     -1.9195369972     1.5447723015
C     1.6886847905     -2.7325453018     0.8088470284
C     3.0439734132     0.5345000553     1.3977085924
C     3.1589301563     -0.7979006989     0.8037739072
C     2.6327163538     1.4608217661     0.3588429115
C     0.7949619216     2.1933369836     1.846474546
C     1.5276310551     2.3424337631     0.5712041307
C     -1.254686061     1.0094479377     2.5642583588
C     -0.6472162616     2.052070961     1.7498715566
C     -1.8007955977     -1.3685313025     1.8765788751
C     -2.1350992948     0.0648595622     1.8548860387
C     -0.5985487909     -2.8461708889     0.3529009332
C     -1.7266333766     -2.0447348503     0.5621519978
C     1.4754057781     -2.5505833463     -0.6026077559
C     0.0808780335     -2.7599840387     -0.9187581316
C     2.9606479855     -0.63319889     -0.5795949961
C     2.7634287716     0.8023895346     -0.8836984894
C     2.2025850506     -1.5744353194     -1.3523355401
C     2.0816816055     1.245842344     -2.0417391936
C     0.8416935138     2.7897038113     -0.5687790164
C     1.1933258124     2.3593622736     -1.8974896205
C     -1.3342442343     2.4860488989     0.5481390378
C     -0.5946802883     3.0031274037     -0.5544950253
C     -2.8156253604     0.5282303778     0.7637424301
C     -2.5999681057     1.8753263225     0.2358605522
C     -2.4148474737     -1.4948996933     -0.6101822857
C     -3.1952696621     -0.3321249965     -0.3659809754
C     -0.5284193601     -2.2387916499     -2.0749262339
C     -1.9081270622     -1.7218018316     -1.9724960477
C     1.642348715     -1.1599372311     -2.5776939631
C     1.7375477693     0.2507136041     -3.034642799
C     0.3803128327     -1.6537350505     -3.0296301733
C     0.7255563865     0.497768031     -3.9533451504
C     -0.1147333661     -0.7171415574     -3.9945618489
C     0.0378638489     2.5297293234     -2.7635680321
C     -1.0810267452     2.9249573727     -1.9104066785
C     -0.1635898154     1.6291796606     -3.8270544952
C     -3.1174329148     1.9119231658     -1.0614410134
C     -3.5597494509     0.5356880291     -1.4151578991
C     -2.3938149603     2.4367086093     -2.1676914651
C     -2.3799791376     -0.8624641693     -3.0279200644
C     -1.4347024076     -0.3666402891     -4.0188619365
C     -1.5086791086     1.1221451431     -4.053692978
C     -3.201050819     0.2632288165     -2.7195314182
C     -2.5658953429     1.5037876424     -3.2677326631


