58

 C     1.3382495965     -0.0622676026     3.7253229782
C     2.5269512709     -0.2892249813     3.05001339
C     2.5295442104     -1.6536387245     2.5243742901
C     0.5144743445     -1.2568559324     3.5259109045
C     1.2484082203     -2.2385005903     2.7678720864
C     -0.7447226699     -0.8405932038     3.0917867746
C     0.5424949374     1.095288544     3.4156419686
C     -0.7846248549     0.6356985967     3.088109473
C     1.0983084111     2.1162866738     2.6340243904
C     2.9604286416     0.6148883074     2.0123265633
C     2.3288351961     1.8541976994     1.9026842053
C     3.0122189581     -1.588440017     1.1970205534
C     3.1923368869     -0.1788760808     0.8220945914
C     2.5334763029     -2.4887733764     0.2710671473
C     0.5962228589     -3.0103551211     1.7491597433
C     1.4230392758     -3.3620715093     0.6230200518
C     -1.46570823     -1.6099418573     2.1099400407
C     -0.8396677327     -2.7786590361     1.4946112819
C     -2.4739219979     -0.8869613275     1.4106964513
C     -1.6038322733     1.3443476913     2.1825260052
C     -2.5386798134     0.5497820349     1.4394205284
C     0.2530590343     2.9234212687     1.782634046
C     -1.1250285635     2.6017574515     1.5910038508
C     2.188021343     2.4562487069     0.603111794
C     1.0486127872     3.3548516837     0.6507918333
C     2.8065433413     0.2864220518     -0.466306283
C     2.4260262963     1.6933831558     -0.5792267658
C     2.3170767548     -2.0718771003     -1.1085227924
C     2.3089168407     -0.6885191596     -1.4594472983
C     0.8346306506     -3.7737565774     -0.6005667986
C     1.3753543196     -2.9696540955     -1.6725172353
C     -1.3949646072     -3.2317812242     0.2405856949
C     -0.5552464958     -3.786471666     -0.7573916031
C     -2.9545249186     -1.3243998947     0.1192007452
C     -2.4200561255     -2.4537667208     -0.4599366388
C     -3.0885018751     1.0091211392     0.178962554
C     -3.2900205295     -0.1481206654     -0.6744914335
C     -1.7398100713     3.0713630581     0.3687034551
C     -2.7204207808     2.2330200031     -0.3562272851
C     0.4396708767     3.7788754875     -0.5214175687
C     -0.9944413257     3.7692424947     -0.5890591401
C     1.7382779679     2.1126915017     -1.770179984
C     0.9142070247     3.2436878431     -1.768284154
C     1.3624459012     -0.2627894064     -2.5119144845
C     1.158506469     1.1163372334     -2.6892544891
C     0.3068081799     -2.5283039228     -2.5216782904
C     -0.8822005672     -3.1491148954     -2.0381278537
C     -2.0630349935     -2.3974026524     -1.8850800671
C     0.2859719964     -1.1729987732     -2.9685903169
C     -2.934831996     -0.0808038223     -2.0202101118
C     -2.17684748     -1.1924731141     -2.5800154042
C     -1.0096609738     -0.6107787682     -3.2065881533
C     -2.4562626494     2.335374482     -1.780594902
C     -1.396150346     3.288567496     -1.9254067199
C     -0.2442339028     2.962341628     -2.6257801318
C     -0.0851970291     1.6609444901     -3.2040160026
C     -2.422573914     1.1621964024     -2.5600859358
C     -1.2039521883     0.8178346941     -3.2716995785


