58

 C     1.5266027271     -0.1406441116     4.0027812644
C     0.6708951806     -1.29038437     3.9164747644
C     1.1483680473     -2.11502972     2.8849206013
C     2.5299376541     -0.229897619     2.9610433448
C     2.3202967928     -1.3996245718     2.2392882772
C     2.5260472674     1.0007586571     2.1986047758
C     0.7344951387     0.958969952     3.6525453837
C     1.3615713844     1.7393403113     2.6197021675
C     -0.7099822096     -0.8436624497     3.8022310896
C     -0.6597738038     0.5838343481     3.5049544469
C     -1.6169961111     -1.6562737015     3.1254723283
C     0.2603282527     -2.903066616     2.0800502656
C     -1.147996524     -2.782585471     2.2864396348
C     0.7234438483     -3.2274951315     0.7523814628
C     2.4953487796     -1.4298454914     0.7992331752
C     1.8156655761     -2.4366262726     0.1034038572
C     2.888696607     1.01917359     0.8388617248
C     2.8786773699     -0.2148744416     0.0638174976
C     2.5271799448     2.236452106     0.1993447718
C     0.5665077826     2.4483820113     1.6697107896
C     1.2964268933     2.9210540829     0.5708744488
C     -1.4458855748     1.1557415755     2.4522357611
C     -0.8596745655     2.1334966705     1.5050793805
C     -2.6311705231     -1.0104395457     2.3994876154
C     -2.5393171015     0.3487758687     2.0048448192
C     -2.0684617802     -2.9238181602     1.1609771111
C     -2.983371023     -1.8163213033     1.2356959985
C     -0.1814306057     -3.5670938191     -0.2391018016
C     -1.5881097484     -3.2883968205     -0.105955976
C     1.4936126522     -2.29718103     -1.2890549997
C     0.2792935721     -3.0087438215     -1.5005982971
C     2.6194769603     -0.112438112     -1.3664503165
C     1.7682378241     -1.1110386308     -2.0235937283
C     2.6680182705     2.369897927     -1.1751606244
C     2.7064287588     1.1856366966     -1.9898558447
C     0.6799549362     3.4068775634     -0.6343300827
C     1.6738298044     3.3024248045     -1.6826508013
C     -1.4332585217     2.3290291673     0.1940359962
C     -0.6939495087     3.071801095     -0.8691783346
C     -2.9740774195     0.4135738177     0.6349186633
C     -3.2343051072     -0.9807184657     0.1595230408
C     -2.5069291232     1.3936246681     -0.2281006028
C     -1.9676075693     -2.5272894936     -1.2795613533
C     -0.7901408814     -2.4115440589     -2.161249993
C     -2.7881837935     -1.3742002718     -1.1477981909
C     0.8052861232     -0.716548311     -3.0656004813
C     -0.5508379281     -1.2816115975     -3.0054535552
C     1.9273526718     1.4804857009     -3.1410662564
C     1.2936339869     2.8279765071     -2.928875989
C     0.9537413372     0.5994532762     -3.6401198104
C     -1.0546818208     2.8597859822     -2.2656645947
C     -0.0443774516     2.7456212555     -3.2788933676
C     -0.228584953     1.4096442184     -3.9147228788
C     -2.6572103587     1.0836381136     -1.6421264446
C     -2.6013844222     -0.327670018     -2.0779351494
C     -1.6736866703     -0.3989390392     -3.1657121374
C     -2.0382952292     1.8564870412     -2.5933206685
C     -1.4696758056     0.9420654486     -3.6068022082


