58

 C     1.531042468     0.021794279     4.012256807
C     0.7741397423     -1.1524447442     3.9317681018
C     1.4492189753     -2.1313531616     3.0836731056
C     2.6194007827     -0.0968257991     3.0749922161
C     2.6523147474     -1.4598429998     2.5888745666
C     2.5353947937     0.9652431465     2.148963771
C     0.6995312946     1.1242466384     3.5985680314
C     1.3523031078     1.7756198942     2.5251283829
C     -0.6086191933     -0.7832091356     3.6648706469
C     -0.6430920126     0.656008956     3.3896177392
C     -1.3741068976     -1.612643899     2.8853661053
C     0.6751617592     -2.9698042159     2.2283700348
C     -0.7687608273     -2.810221192     2.260607955
C     1.2481663035     -3.3360432694     0.9399978613
C     3.0482195386     -1.6645171753     1.2698940053
C     2.4460812416     -2.7322714741     0.5361946081
C     2.7959960978     0.7616951201     0.7471708929
C     3.1642989216     -0.5409225288     0.3408238994
C     2.1908941759     1.6660128083     -0.2309371559
C     0.6064915569     2.4213418101     1.5389373082
C     1.2342336531     2.6576843884     0.2377514309
C     -1.4194194414     1.1797993766     2.3266310603
C     -0.8479500274     2.2824980542     1.5761455684
C     -2.3629995415     -1.0619837045     1.9642771614
C     -2.3641685117     0.3067267943     1.6178604787
C     -1.5250008359     -3.0643200607     1.1142656766
C     -2.5435177868     -2.0535945324     0.9427071416
C     0.4190339689     -3.4448627622     -0.2822362916
C     -0.9513024679     -3.3216346342     -0.1856671482
C     2.353352715     -2.3552717475     -0.8674632365
C     2.7482326248     -1.0105714733     -0.9748613935
C     1.1074566931     -2.7735139832     -1.3822406055
C     2.0839406015     1.261678489     -1.6233959913
C     2.127723662     -0.1603690323     -1.9250182644
C     1.3830910796     2.1136443994     -2.5481922457
C     0.4888585389     3.4191838087     -0.6944322451
C     0.695496807     3.2745535695     -2.0891423443
C     -1.5749674157     2.7885146624     0.4810794632
C     -0.9358042436     3.573720644     -0.4889952263
C     -2.8318894101     0.6806141502     0.2598245429
C     -2.6022388303     1.9864833228     -0.1897950748
C     -2.6433334604     -1.7184336981     -0.4056279303
C     -1.6759700134     -2.5218979183     -1.15589187
C     -2.9509969616     -0.3644664991     -0.7759928497
C     0.4278224181     -1.958514683     -2.3245041743
C     1.0945944394     -0.742595487     -2.7832205301
C     -1.0374293432     -1.936340969     -2.2585491954
C     0.6375549412     1.5307268853     -3.623233923
C     0.3636361557     0.1507420153     -3.6232170986
C     -0.607129488     3.3311702985     -2.7639398514
C     -1.6000289508     3.4065337386     -1.7691214105
C     -2.5783414088     2.3546098739     -1.6128262026
C     -0.6481364629     2.276027784     -3.708726135
C     -2.7201775934     -0.035406437     -2.1180780052
C     -1.742254483     -0.843008521     -2.8763533331
C     -1.0814401278     0.0103933031     -3.7420297407
C     -2.631892053     1.3333343723     -2.5845867975
C     -1.682716036     1.3462831642     -3.6783423223


