58

 C     1.5839802434     0.0025971533     3.9393835152
C     0.7999484222     -1.1516806682     3.7887695131
C     1.3980099324     -2.0358549867     2.796672641
C     2.6210029347     -0.0559796792     2.9764142494
C     2.520862809     -1.3136941751     2.2481010962
C     2.5769777815     1.1232067275     2.1757443429
C     0.7158924326     1.1127512104     3.5322561225
C     1.3447917565     1.8481932783     2.510724676
C     -0.593288934     -0.7804645079     3.6337633701
C     -0.6178637499     0.6764077761     3.3287748121
C     -1.4319457003     -1.6230207214     2.969975274
C     0.5434361606     -2.8316450633     1.9808715145
C     -0.8883221097     -2.7940877994     2.2498872928
C     0.9358814999     -3.0175915192     0.6244314015
C     2.8106518716     -1.3498246854     0.8452671698
C     2.0626605706     -2.2893937421     0.0806931152
C     3.062357018     1.1462267134     0.8500444869
C     3.2807757934     -0.1244876248     0.1595411121
C     2.6253754419     2.2865342962     0.0985781813
C     0.56472554     2.466866248     1.4843141693
C     1.3150842303     2.8528829922     0.3568162797
C     -1.4284468994     1.1881658669     2.264068725
C     -0.8611722205     2.1727004171     1.3498205248
C     -2.5445000126     -1.077031407     2.2040292439
C     -2.5426203855     0.3321377798     1.816665316
C     -1.7916732902     -3.0329476613     1.2170422346
C     -2.8766889035     -2.0498313189     1.2531677783
C     -0.0398656232     -3.1437612104     -0.4413238949
C     -1.4032181802     -3.1422152324     -0.155595676
C     1.7988801026     -2.0678418526     -1.3249148548
C     0.4437250892     -2.4648956001     -1.6213457917
C     3.2310729785     -0.0948996726     -1.2640913065
C     2.3956263169     -1.0232098335     -1.9846132431
C     2.7841761349     2.3191760645     -1.3039493237
C     3.0929075298     1.146182476     -1.9763130787
C     0.6782036186     3.1711150512     -0.9185820199
C     1.609888807     2.9416666822     -1.9433298057
C     -1.5137066885     2.453823967     0.0621903344
C     -0.7288886566     2.9272323613     -1.0906214127
C     -3.1936712536     0.6588087711     0.6262615813
C     -2.7550581185     1.7930150395     -0.2033047602
C     -3.2438180552     -1.7118926489     -0.0690682306
C     -2.308922697     -2.3607518268     -0.9901257138
C     -3.632330357     -0.3857845295     -0.2985897295
C     -0.4044532609     -1.7058831612     -2.4755541178
C     -1.8517646577     -1.6796983073     -2.1515474748
C     1.6276308108     -0.3079815954     -3.0131944272
C     2.1395556313     0.9979585581     -3.0819521706
C     1.2368003482     2.1242167614     -3.0587208359
C     0.2138106842     -0.5807364578     -3.201524187
C     -1.1087021413     2.5200240402     -2.4251079363
C     -0.105420763     1.907738499     -3.2999847372
C     -0.5958496111     0.5512919016     -3.5512420723
C     -3.1503117599     1.5282578872     -1.5439690129
C     -3.4854577112     0.1092677617     -1.6012974256
C     -2.616842379     -0.518473537     -2.5546233683
C     -2.3168112798     1.8139309482     -2.6207562984
C     -1.9830770711     0.5431837863     -3.2590272076


