58

 C     1.454963665     -0.0529722519     4.0380934167
C     0.6477444755     -1.151181636     3.8397496756
C     1.2061479092     -1.9190916417     2.7114582276
C     2.5654251618     -0.080937897     3.1276341193
C     2.3881969662     -1.1978454962     2.2454438574
C     2.6819975528     1.2086159532     2.5531237291
C     0.6800511346     1.162457772     3.7403200874
C     1.4247091333     1.9551885106     2.8406150883
C     -0.7143622185     -0.6618850657     3.7080142636
C     -0.6655844084     0.7932227883     3.4643348929
C     -1.5721306842     -1.4145839615     2.9924445626
C     0.3540026164     -2.5411990497     1.8027574785
C     -1.0637254487     -2.5559286892     2.1914227953
C     0.6744023252     -2.5854811432     0.3565401163
C     2.6422710089     -1.080169344     0.8398804477
C     1.8098804645     -1.8159958374     -0.1317839965
C     3.2389890558     1.2948948747     1.2921118131
C     3.2751014914     0.133092901     0.4206406447
C     2.8480920704     2.3933181354     0.4776590343
C     0.7544974636     2.6320949861     1.7752604819
C     1.5881663831     3.0140189335     0.6571265555
C     -1.3629173537     1.3303800403     2.3308160927
C     -0.6608438421     2.3341747372     1.5261921922
C     -2.6380604445     -0.8014962433     2.2174360844
C     -2.4536450585     0.5330878472     1.7237691049
C     -2.0457925343     -2.8643576744     1.288009563
C     -3.1171938506     -1.8264911321     1.3725144749
C     -0.3914110763     -2.9722543659     -0.5706239948
C     -1.766031725     -3.1133680888     -0.0919430743
C     -0.2553567275     -2.6427650799     -1.9338886186
C     1.88465213     -1.4368657287     -1.5541313566
C     0.913805086     -1.9749156314     -2.4406392132
C     3.1561434329     0.6108430522     -0.9421724473
C     2.9928148617     2.0284754346     -0.9030951663
C     2.511803653     -0.153528437     -1.9463905163
C     1.0397217558     3.2308127257     -0.6744691883
C     1.9767629049     2.6620009217     -1.6634678622
C     -1.1595093913     2.5808952831     0.210177821
C     -0.3100486696     3.0573074008     -0.8768829301
C     -2.8698881061     0.7818623637     0.3362021967
C     -2.1982518196     1.8104797496     -0.3785141532
C     -3.5204970069     -1.5760433624     0.0847486995
C     -2.826867225     -2.513476994     -0.8267477909
C     -3.4178073641     -0.277210931     -0.4752457169
C     -1.4083878745     -2.1509945265     -2.7249922106
C     -2.6058351512     -1.8543340636     -2.0327611797
C     -2.9859665439     -0.4528146563     -1.8608611531
C     0.5064720056     -1.2536779913     -3.6280145549
C     -0.9432301638     -1.2505303289     -3.6713121419
C     1.9331217815     0.6180667222     -3.0224966047
C     1.5019206079     1.9957134731     -2.7691966739
C     0.9399020071     0.0410768684     -3.8368982308
C     -0.8220025151     2.5265520805     -2.1368211302
C     -1.9714087178     1.7407592745     -1.8278345255
C     -2.2980853968     0.5566594152     -2.5797955903
C     -1.3830907463     0.1426421609     -3.6349050759
C     0.0779978041     2.0703259133     -3.1289851915
C     -0.2418248441     0.9333769401     -3.8996272486


