58

 C     0.9844371732     0.1774790931     4.0241522465
C     2.123545149     -0.1059256652     3.2986754127
C     2.1356967764     -1.5446430395     2.9614115535
C     0.1492349022     -1.0825589368     3.9792780292
C     0.8013145062     -2.0329624417     3.1407737683
C     -1.1273410942     -0.6972371761     3.7047124238
C     0.1728076947     1.2672386804     3.6703801944
C     -1.205752523     0.7613682536     3.7473651133
C     0.5392163105     2.0743203977     2.5166855196
C     2.5047015816     0.6080889619     2.1227764172
C     1.6763591435     1.6775508682     1.6474233617
C     2.8091054396     -1.7129177809     1.7655328314
C     3.0413233867     -0.3771110415     1.1967133486
C     2.3333703822     -2.7277335829     0.9110216907
C     0.0907722234     -2.5874931255     1.9871074565
C     0.913832569     -3.084918066     0.9701801246
C     -1.8524818783     -1.1409589342     2.511992192
C     -1.2447830709     -2.0321313987     1.5963093026
C     -2.1608245856     1.1663200089     2.8538143038
C     -2.6001840573     -0.0122393825     2.0527903915
C     -0.5211829874     2.7737471338     1.9035081771
C     -1.9304764003     2.3833691715     2.1687306294
C     -0.4514996527     3.2456329274     0.5557177927
C     1.6330665367     1.9356367546     0.2028280197
C     0.5599813202     2.7662345979     -0.3503382232
C     3.0145088685     -0.177848395     -0.1907080102
C     2.3758625145     1.0444543179     -0.707288987
C     2.6592167473     -2.619000095     -0.4335731711
C     3.0245347006     -1.3796859435     -1.0135445926
C     0.4364798745     -3.2358081724     -0.4011124681
C     1.5610778359     -3.1531722815     -1.249525413
C     -1.6257407291     -1.9271713615     0.1765587507
C     -0.8095527749     -2.6349531849     -0.8211655023
C     -2.9713337658     0.1452280396     0.7024810556
C     -2.499077341     -0.847035396     -0.2689375777
C     -2.6705732214     2.6251924181     1.0383907907
C     -1.815362498     3.3614753254     0.0984977183
C     -3.2508786109     1.5176742664     0.2845170625
C     -2.1696487908     3.003915733     -1.1719754242
C     -3.1206917679     1.8491003839     -1.0711069667
C     0.1881466583     2.6414787492     -1.7664120216
C     -1.2026846911     2.6990694566     -2.1406092271
C     2.0901466904     1.0668468552     -2.0954304379
C     1.0037003473     1.8373903754     -2.6245804779
C     2.4939909593     -1.3584820913     -2.3595323807
C     1.5307632081     -2.4901728548     -2.4811362341
C     2.183324509     -0.1497246003     -2.9364216129
C     -0.8924378276     -2.288768711     -2.1976760487
C     0.2817070068     -2.2630600038     -3.0577029039
C     -2.5180502519     -0.4751720796     -1.6984329424
C     -2.7334152581     0.9219343789     -2.0321957297
C     -1.76039485     1.5894975648     -2.9177836345
C     -1.7609148734     -1.2064500575     -2.6409223332
C     0.4452495909     1.1416960002     -3.7572427661
C     1.1268442675     -0.091813767     -3.9174581213
C     0.1435442944     -1.1350787625     -3.9324280038
C     -0.9800769882     0.8598440913     -3.7665553749
C     -1.1525026884     -0.5695564554     -3.7885290716


