58

 C     1.4270020903     -0.2035597252     4.3673333667
C     0.6505532151     -1.3425363248     4.3290199481
C     1.2343505053     -2.2995973166     3.3945408747
C     2.5350696086     -0.3619261826     3.3953295044
C     2.4621955791     -1.7123565228     2.8726362196
C     2.4584385884     0.7063367474     2.4917210899
C     0.6167753483     0.9154066009     3.9718145135
C     1.2973995374     1.5460920721     2.8998089492
C     -0.7006095086     -1.0016536823     3.8998942952
C     -0.7439750069     0.4394873784     3.7163184718
C     0.2269101415     -2.6506933125     2.4805968334
C     -0.9679170687     -1.7856845157     2.7697325132
C     0.5387859563     -2.9636842737     1.1260123951
C     2.738344094     -1.899593239     1.5323476217
C     1.8962217725     -2.7621379442     0.7302157537
C     2.716045269     0.5394360596     1.0679517957
C     3.0398736371     -0.7732603317     0.6545170924
C     2.1152109086     1.4518730644     0.0905046739
C     0.5866833562     2.2390424365     1.9282350735
C     1.1859272645     2.465037537     0.5990132084
C     -1.437772632     0.9729123494     2.6347399441
C     -0.8625937977     2.1568697862     1.9976436904
C     -1.7504853411     -1.291004086     1.678081156
C     -2.1622162405     0.0927206556     1.7050228013
C     -0.5209100095     -2.8554481002     0.1102805
C     -1.6893540544     -2.0044023214     0.403208057
C     -0.1602312914     -3.0460622641     -1.2370374695
C     2.1654817672     -2.4711892382     -0.6416491197
C     2.7968574256     -1.1748883368     -0.702668681
C     1.2531236342     -2.8497496352     -1.6170957619
C     2.059579323     1.1027839151     -1.3241773458
C     2.4405571985     -0.2573702323     -1.7237569107
C     1.1703557806     1.8673945447     -2.2143548875
C     0.4359876178     3.2384751045     -0.285655365
C     0.441128874     2.9611545952     -1.7061781862
C     -1.5944795461     2.7949812607     1.0049587562
C     -0.9287652217     3.6312103571     0.0703111865
C     -2.7991044481     0.6794734605     0.5412896241
C     -2.7121779347     2.1015896117     0.3348535727
C     -2.4129518514     -1.4637579454     -0.6797799762
C     -2.9976720137     -0.1362366456     -0.6060557049
C     -0.9583246623     -2.5472400351     -2.3368832644
C     -2.0743265638     -1.7412874469     -2.0585517046
C     1.2956024072     -2.1632889465     -2.8346181196
C     1.8686472012     -0.8519419134     -2.9093243756
C     -0.0652282498     -2.1182516065     -3.3852489243
C     0.5771599077     1.1973018241     -3.3717612118
C     0.960439206     -0.0882761727     -3.705926487
C     -0.24508418     -0.9030628041     -4.014353583
C     -2.9807527794     0.4236743503     -1.9383989817
C     -2.3446245082     -0.5394537188     -2.8298621825
C     -0.888540714     1.286798974     -3.6047637255
C     -1.3812550163     -0.0889152834     -3.7525593948
C     -0.9110198464     3.230664898     -2.1868158024
C     -1.7035416175     3.6356912604     -1.106666509
C     -2.7864124734     2.6440608817     -0.9641516565
C     -1.6272177348     2.2280205025     -2.946505114
C     -2.7831629127     1.8000198659     -2.1131330275


