58

 C     1.3522738766     -0.048178684     3.5609851378
C     2.5469800762     -0.3242171286     2.9532494454
C     2.5002696208     -1.708595986     2.4424531358
C     0.4815458446     -1.244754789     3.4338165286
C     1.1759460895     -2.2095575236     2.6185909919
C     -0.8041645639     -0.8294528063     3.1567352329
C     0.583954066     1.1014352619     3.2062356056
C     -0.7940842032     0.6490021931     3.227896975
C     1.0257411233     1.9987988993     2.1890294884
C     3.0677006253     0.5359951539     1.9332346056
C     2.328134594     1.717144961     1.5603168014
C     3.1319709756     -1.7088048993     1.1912804386
C     3.6205386263     -0.3462175381     0.9111539343
C     2.5449858592     -2.4564455743     0.1511692795
C     0.4716021222     -2.8045696148     1.5254354195
C     1.2467477842     -3.0432882281     0.3369624335
C     -1.6254850651     -1.4889500236     2.1582184318
C     -0.9769133911     -2.5403191375     1.3760838129
C     -2.7458739912     -0.7284577718     1.6167322318
C     -1.7473003407     1.3709602865     2.599684546
C     -2.8604089346     0.6877252334     1.9193991696
C     -0.0230221423     2.731286455     1.4367554071
C     -1.3677511314     2.5393421864     1.829819022
C     0.1991492507     3.1067730565     0.0138761835
C     2.5204898747     2.1676876153     0.2106027648
C     1.4275366684     2.7761781701     -0.5661773397
C     3.7018709872     0.0846715495     -0.4034734402
C     3.2950173051     1.4201814718     -0.6874533155
C     2.6424486389     -1.9839455574     -1.2286135627
C     3.2228676481     -0.7549377979     -1.5119243682
C     0.6122510746     -3.1145982299     -0.9697096228
C     1.443766221     -2.4124994426     -1.938416743
C     -1.5722110487     -2.8688594136     0.1183052156
C     -0.7562926469     -3.0939074135     -1.0791038951
C     -3.2984089892     -1.1142535047     0.3504297404
C     -2.7374281802     -2.2124204013     -0.3149112746
C     -3.664425375     -0.1320396006     -0.6862231389
C     -3.3775501585     1.5865930305     0.9860001027
C     -2.459617469     2.7276484127     0.9058529637
C     -3.6987343827     1.2098082442     -0.3751542822
C     -0.9266428536     3.1658888298     -0.9017333303
C     -2.2710568891     3.0749745163     -0.4107367637
C     -3.0432238088     2.1662862848     -1.2554929768
C     -0.9027570571     2.4385582666     -2.1297397981
C     -2.1881350282     1.7221689497     -2.2674327075
C     1.502682414     2.276157588     -1.9299050321
C     2.6394915017     1.4409272268     -1.9914561384
C     2.5653887708     0.128892639     -2.4899156056
C     0.3070973977     1.8963532826     -2.6283154257
C     0.8522866622     -1.6145101329     -2.9138018438
C     1.3751547028     -0.2796992438     -3.1440494947
C     0.2663808668     0.6116256843     -3.2586159528
C     -1.3876418052     -2.3855822232     -2.2030880383
C     -2.6233463272     -1.899762587     -1.7524631643
C     -3.0414312461     -0.5719391645     -1.9470902698
C     -2.189766732     0.3351112381     -2.6902811387
C     -0.5921315469     -1.557846323     -3.0222442605
C     -0.9764659606     -0.1895659365     -3.2227821224


