58

 C     1.3715708108     -0.0808232067     3.7190394942
C     2.5352502932     -0.4181966098     3.0450891061
C     2.4825285758     -1.8280780126     2.6693043633
C     0.4985732075     -1.2945542834     3.7065186464
C     1.2011997964     -2.3603858727     3.0645460423
C     -0.76216141     -0.8928386633     3.2763467858
C     0.6100329244     1.0564122484     3.3653005982
C     -0.7651711298     0.5786661704     3.2872315367
C     1.0688304066     2.0007768163     2.3854346162
C     2.9190218029     0.3630814945     1.9098723242
C     2.2849757686     1.6182482559     1.6539036783
C     2.9036257655     -1.9108405299     1.3216965434
C     3.1587612813     -0.561595692     0.8228412533
C     2.2659135292     -2.8189992078     0.455547743
C     0.4835313802     -3.1575773756     2.1521873174
C     1.1470860322     -3.5499155399     0.9512969441
C     -1.4782113952     -1.5995883886     2.2083659438
C     -0.8650748206     -2.7722591356     1.7354961063
C     -2.3794453126     -0.8357589661     1.3176992261
C     -1.6864840787     1.2442590217     2.5589484666
C     -2.6229513788     0.5169654528     1.6786861236
C     0.0517689986     2.8226245069     1.7123333301
C     -1.3299895047     2.5007620707     1.9143917558
C     0.3580333168     3.4180555396     0.4324367695
C     2.4302130759     2.0724342747     0.3160089256
C     1.568903112     3.0740603033     -0.1950139
C     2.879636707     -0.2115123918     -0.5355158882
C     2.678662575     1.1613421795     -0.7708161335
C     2.0180589437     -2.4811608406     -0.9540642823
C     2.2650023609     -1.1890842504     -1.4679970215
C     0.1923374161     -3.6561191916     -0.1160884526
C     -1.0426945948     -3.1373515735     0.3248306313
C     0.7911118153     -3.1692482035     -1.3217533029
C     -2.5914886006     -1.222076034     -0.0936659009
C     -1.8626563875     -2.3833901381     -0.5752836128
C     -3.0325733105     -0.210641834     -1.0765048298
C     -3.030430086     1.4600947082     0.7238191339
C     -2.2747637475     2.678620176     0.8785976366
C     -3.1786250829     1.1537571815     -0.6543334412
C     -0.6349550666     3.5454098207     -0.6495049103
C     -1.9473925627     3.1428835381     -0.429004442
C     -2.6195585956     2.2669722484     -1.4001595339
C     1.3795466642     2.8883927497     -1.6171516867
C     1.9532130069     1.6483713504     -1.9555259017
C     0.024962993     3.1959699498     -1.9215009331
C     1.4552079922     -0.7011911775     -2.6210262908
C     1.2922975248     0.7482439409     -2.8451700008
C     -0.0288018512     -2.6549824608     -2.2768607341
C     -1.452829948     -2.4335600039     -1.9656243528
C     0.4153828271     -1.5520106948     -3.1020487523
C     -2.6987439787     -0.3669797676     -2.4710573679
C     -1.9032874756     -1.4873827385     -2.8751586887
C     -0.7721984723     -1.0097685285     -3.6826551437
C     -2.0220576678     2.0144899346     -2.6393256194
C     -0.6197096057     2.4162766929     -2.8646857106
C     0.0712530467     1.2619935424     -3.4461878295
C     -2.2150440906     0.7517528096     -3.2206528587
C     -0.9391937659     0.3469543352     -3.8434335094


