58

 C     1.6643096968     -0.1725056565     4.4058911851
C     0.76100984     -1.3389099838     4.330743817
C     1.4377814484     -2.3544242784     3.6310357988
C     2.7273831069     -0.4086174075     3.4324233304
C     2.6596680494     -1.7206389369     3.0081661598
C     2.6680375782     0.6405988085     2.4126339285
C     0.9552247918     0.9180564836     3.9393182223
C     1.6057512045     1.5221667705     2.7678739554
C     -0.5346558373     -0.9194814368     3.8667973164
C     -0.4468999813     0.540614085     3.7685094371
C     -1.2076702213     -1.6167633059     2.7893055044
C     0.7900072065     -3.0428940786     2.6114656837
C     -0.5343394543     -2.737951518     2.1965938572
C     2.678684184     -2.0561190677     1.607069336
C     1.6317794044     -2.9831855655     1.3976573233
C     2.8542461913     0.3454867838     1.0307762806
C     2.8573311556     -1.0473963038     0.5969547492
C     2.4021110687     1.3464853922     0.0866123999
C     0.8307655589     2.2011951905     1.7742197778
C     1.3244153702     2.2793717648     0.4253832845
C     -1.182095671     1.2280863343     2.8489812198
C     -0.5865770648     2.228219173     1.9480615868
C     -2.1161355952     -0.8638739485     1.9140345766
C     -2.1915425662     0.5470405198     2.075867554
C     -2.4469529688     -1.3424538232     0.5706582612
C     -0.5502852465     -2.8568837612     0.730723079
C     0.8117710837     -2.955939139     0.2547466679
C     -1.5012517213     -2.2662261949     -0.084408102
C     2.3447448146     -1.3430194874     -0.7346800344
C     1.2177218041     -2.2503893736     -0.9041040802
C     2.6104041692     1.0277835461     -1.2703320452
C     2.4818357959     -0.340776961     -1.6999641805
C     2.069633926     1.8282884895     -2.2931692615
C     0.4513897034     2.7489861655     -0.6485821678
C     0.955412929     2.6896211803     -1.9978167274
C     -1.4486599266     2.38267711     0.8328908601
C     -2.5350042073     1.4199483997     0.9908131615
C     -0.9958988703     2.7197799574     -0.4751771809
C     -3.2032822581     -0.5088750083     -0.2757364156
C     -3.1818283932     0.9313817667     -0.1050298918
C     -3.1917382222     -0.7043089119     -1.6822279735
C     -1.16613129     -2.0905153266     -1.5049979777
C     0.2220373588     -1.9796415945     -1.9221645051
C     -2.1716871484     -1.4957457013     -2.3307267964
C     1.7676263754     -0.3409366235     -2.9642180684
C     1.7778483755     1.0178776147     -3.4459859089
C     0.5810617008     -1.1459968549     -3.0851143551
C     0.0699044379     2.6111530814     -3.095497796
C     0.6109570734     1.5583391371     -4.0262474934
C     -1.9036626771     2.4520470278     -1.6261689024
C     -3.0133378486     1.5561450657     -1.4120175815
C     -3.3431972916     0.5462239047     -2.3786897814
C     -1.327364029     2.4510097733     -2.9558914719
C     -1.8288477511     -0.8498368751     -3.5355954882
C     -0.4864412797     -0.6240937253     -3.919257542
C     -0.4375778939     0.7581642995     -4.3811990664
C     -2.5872654016     0.4412673489     -3.5720728023
C     -1.7005245965     1.420385685     -3.9191347264


