58

 C     1.5414219858     0.0087350028     3.9802226551
C     0.7597407902     -1.2153095825     3.8226384639
C     1.4425541152     -2.1152537619     2.9656113259
C     2.6165686996     -0.0554251206     3.0596087588
C     2.6802887487     -1.3895553957     2.5431621295
C     2.527678069     1.0605567242     2.144795114
C     0.7199914864     1.1028421887     3.6502779822
C     1.3470677921     1.8176456948     2.5647995334
C     -0.5881105457     -0.8323194403     3.5458671232
C     -0.6326648046     0.6368341747     3.4474986223
C     -1.3143734694     -1.5824846633     2.6165897868
C     0.7052529311     -2.8634344468     1.9758388084
C     -0.695478058     -2.6311590999     1.8641104281
C     1.3916355704     -3.2246361437     0.7472383499
C     3.1366953264     -1.5571924915     1.2532594679
C     2.6580752309     -2.6832695871     0.4812092147
C     2.7632434113     0.8689548848     0.7558958606
C     3.2251496155     -0.4309111078     0.3414405052
C     2.0609664498     1.7124335512     -0.2151118133
C     0.5624629754     2.5000505923     1.6418167261
C     1.1026135091     2.6703899138     0.2805485083
C     -1.4475147011     1.2807009842     2.5085823602
C     -0.8953148659     2.4505242769     1.808707925
C     -2.2882271424     -0.9327522965     1.7718064782
C     -2.4301196628     0.4650526205     1.765814201
C     -1.3875667058     -2.6922900749     0.5681431575
C     -2.3886497867     -1.6913799017     0.5343876325
C     0.6782974139     -3.3748284404     -0.5402855864
C     -0.7137918175     -3.0912728713     -0.6364138956
C     2.7043067408     -2.3310949195     -0.9068872595
C     2.9416167031     -0.9340359208     -0.9800154406
C     1.5690351735     -2.8826905894     -1.5680037547
C     1.9474545312     1.268967281     -1.6248508713
C     2.2770890914     -0.1219515891     -1.9713511848
C     1.0606017181     1.9531343882     -2.498708025
C     0.2756823413     3.3770311842     -0.643934406
C     0.3192106633     3.061710735     -2.0403901432
C     -1.6879876449     3.0412321048     0.8068615134
C     -1.0757801452     3.6515726677     -0.3269969472
C     -3.0740774394     1.0506837694     0.6205868916
C     -2.8755227861     2.3856634758     0.31649775
C     -2.7997630206     -1.0541457017     -0.6977027817
C     -3.2180570453     0.3032535386     -0.6446689298
C     -1.2224590772     -2.5590558138     -1.8819638482
C     -2.2301038674     -1.516053188     -1.9063797892
C     1.0709493588     -2.193032262     -2.6718749386
C     1.4990235863     -0.8024842481     -2.9397918745
C     -0.3134985292     -2.2296179671     -2.9163380419
C     0.1915545319     1.2279517635     -3.4288211545
C     -1.9383924737     -0.5600385558     -2.9956620438
C     0.3905168252     -0.1231622461     -3.6093842436
C     -0.7379589903     -0.996645402     -3.5651106975
C     -1.0200527046     3.0232495591     -2.592473497
C     -1.8868157126     3.3934050987     -1.5520469591
C     -2.8936623022     2.5212951978     -1.1546230638
C     -3.0365926909     1.2244528664     -1.7436160109
C     -1.1608156452     1.7621244863     -3.2632334422
C     -2.2133937611     0.8470341237     -2.8671766396


