58

 C     1.5627814818     -0.0026379996     4.3801251134
C     0.8641819663     -1.2484144631     4.3337816652
C     1.7471640224     -2.1502094859     3.6720821665
C     2.7188317044     -0.0601007766     3.4690429111
C     2.8779739895     -1.3677334652     3.0510517112
C     2.5867234932     0.9971043815     2.4956037103
C     0.728771028     1.04117671     3.9590909108
C     1.4563327226     1.8072872942     2.9737791266
C     -0.4242257858     -0.9717705764     3.7193680159
C     -0.537470399     0.4862509427     3.547214097
C     -0.9378946189     -1.791130956     2.6736167604
C     1.2568137845     -3.0009029887     2.7162572954
C     -0.1009555504     -2.9161096078     2.2725415954
C     2.9021191636     -1.6766139854     1.6470573449
C     2.0875939795     -2.8468925879     1.4901570345
C     2.6888080563     0.7462866389     1.0900512292
C     2.80809408     -0.6503268388     0.6291777973
C     2.0942657147     1.7341831257     0.1787298718
C     0.728408662     2.515435784     2.0817745062
C     1.2320700406     2.7034512976     0.7499698066
C     -1.2542160534     1.0740470422     2.459424892
C     -0.7065299435     2.2917604702     1.9363038086
C     -1.8421113068     -1.187613404     1.6446630219
C     -2.0303908206     0.2559177847     1.5263261455
C     -2.0889794654     -1.945799222     0.4771845553
C     -0.0621628338     -3.2498386847     0.8745827917
C     1.3102645886     -3.0534828461     0.3767900828
C     -1.0978005812     -2.9157737333     0.0639310472
C     2.2228303582     -0.999285523     -0.6631427845
C     1.4832285842     -2.2464198053     -0.7915629895
C     1.9265812116     1.4486536966     -1.2554231156
C     1.9807049736     0.0406363318     -1.6822854486
C     1.1842509707     2.3563905367     -2.0503401684
C     0.1441288689     3.2094434044     -0.0093893434
C     -1.0893335552     2.7951287973     0.6729932845
C     0.2415674061     3.2454882478     -1.3763579895
C     -2.524263426     0.8401275211     0.2696974356
C     -2.1114601149     2.2023368879     -0.0995898258
C     -2.6290014511     -1.3969902163     -0.7273920711
C     -2.9475397256     -0.0228163006     -0.8345791703
C     -0.878275657     -2.7567581308     -1.3510135471
C     0.454103493     -2.3682039462     -1.7897186942
C     -2.0054466362     -2.0865266026     -1.8712431027
C     1.3322542488     -0.3116347397     -2.8852968385
C     0.5378288631     -1.5416832943     -2.9312377775
C     0.552934664     1.9887618154     -3.3220981475
C     0.6578987407     0.6566802714     -3.7548405614
C     -0.9700877852     3.2070198729     -2.0912886751
C     -2.1659598536     2.6390021886     -1.4783051619
C     -0.7458924912     2.6376063637     -3.3919100799
C     -3.0731392619     0.4989987607     -2.2042009536
C     -2.7613842189     1.85578019     -2.4777473272
C     -1.907171605     1.9055954767     -3.7087586577
C     -1.926054267     -1.4604426726     -3.1236391433
C     -0.6020508256     -1.2962139907     -3.7189959438
C     -0.5132231933     0.0116419488     -4.310148797
C     -2.6419499421     -0.2785053601     -3.3416554111
C     -1.7945394823     0.6086384304     -4.1902079787


