58

 C     1.3155544155     0.0242895118     3.8318604091
C     2.52515726     -0.1801950214     3.1931990021
C     2.5244267676     -1.5234372405     2.6128738763
C     0.4601588891     -1.1461930552     3.5216391228
C     1.1980189638     -2.0515367795     2.6892683753
C     -0.7931082168     -0.6971113942     3.1504575467
C     0.5547318524     1.2054506     3.612812098
C     -0.8292882429     0.7679750585     3.3915609885
C     1.0677216155     2.1988860042     2.7578765486
C     2.9833664307     0.7338199905     2.1723122641
C     2.2557381354     1.9134084904     1.966338603
C     3.1743728406     -1.4671102063     1.3707040662
C     3.4088614141     -0.0555666619     1.0263686048
C     2.7556608924     -2.3642598864     0.3859881161
C     0.5598488182     -2.6186384648     1.5230174429
C     1.4286137428     -2.9597859521     0.4545155027
C     -1.5092283521     -1.2718156081     2.023443317
C     -0.8429242988     -2.2707993882     1.2063441708
C     -2.5973227567     -0.4716306181     1.4793947765
C     -1.7046882776     1.5574001239     2.7128380924
C     -2.7127728818     0.9378446131     1.8458340334
C     0.1535999566     2.9592655759     1.9215619384
C     -1.2252988909     2.7721395109     2.0444597645
C     1.9889186525     2.3717883995     0.6134635618
C     0.7210600706     3.0729141051     0.5963669967
C     3.1867003638     0.3876788055     -0.3056200985
C     2.4399870888     1.6389882942     -0.5190196046
C     2.958749899     -1.9923833498     -0.9606271516
C     3.0947722013     -0.636972744     -1.327465087
C     0.9371365692     -3.10336882     -0.9091558142
C     1.9322087071     -2.6005506791     -1.7825046412
C     -1.3652929204     -2.5568242236     -0.138927106
C     -0.4410380111     -2.9438325301     -1.2279061462
C     -3.1370210695     -0.839664865     0.2338187196
C     -2.5955822865     -1.9446610947     -0.5151245009
C     -3.6135634912     0.178112209     -0.7356608036
C     -3.0724546911     1.8860836866     0.8809769831
C     -2.0519319137     2.9365648359     0.9023621414
C     -3.3402785738     1.5367509705     -0.4607614796
C     -0.1110665737     3.0717615386     -0.5685608726
C     -1.5432612888     3.0534549517     -0.398353545
C     -2.3955269176     2.2415672991     -1.2916278575
C     1.6637397611     1.7808570788     -1.7184033314
C     0.4077742222     2.4444136559     -1.7340119438
C     2.2889664573     -0.4467045483     -2.5363742077
C     1.6025315555     -1.7171674809     -2.8375179029
C     1.6086097413     0.7356731222     -2.7272488671
C     -0.706282883     -2.488945979     -2.5716402374
C     0.2974264428     -1.7212225813     -3.2877631124
C     -2.8995060929     -1.682408195     -1.9046089455
C     -3.3878104049     -0.3045286722     -2.0159160542
C     -1.9535394112     -1.8783741655     -2.877232047
C     -1.8879846612     1.6330993399     -2.4767195884
C     -0.4693361318     1.7783118908     -2.7123044883
C     0.2873399717     0.7602906619     -3.3536191235
C     -0.3450615167     -0.4576891884     -3.7174882656
C     -2.520804099     0.4050853199     -2.9311041971
C     -1.7297788535     -0.5904962305     -3.5783900125


