58

 C     1.5517191117     0.1004305205     3.9787592901
C     0.7430246996     -1.0748022164     3.8923747769
C     1.3381574583     -1.9574800985     2.9014572348
C     2.4780562164     0.0483346805     2.9179896475
C     2.4245380887     -1.2456991085     2.2934891019
C     2.3714969346     1.2383575957     2.0891867238
C     0.7150252681     1.2502011523     3.7265108469
C     1.3241196385     2.0565310436     2.701870577
C     -0.5928206156     -0.643195714     3.6408212578
C     -0.6279909577     0.8394555016     3.5595893628
C     -1.396695638     -1.3811936379     2.7538713294
C     0.5372208431     -2.81725272     2.0812552319
C     -0.8666625323     -2.5653014066     2.0622830569
C     1.1418618965     -3.28610753     0.8704721083
C     2.7353075006     -1.3801951976     0.9059018532
C     2.2975250729     -2.5673342824     0.2848300296
C     2.5168148347     1.1734286936     0.6889566382
C     2.8925293873     -0.1357682006     0.089914175
C     1.8150671763     2.1832800238     -0.1353494872
C     0.5008576009     2.7931624337     1.8881856058
C     0.8548326528     3.015972912     0.499370056
C     -1.4724386024     1.5093108753     2.6128955137
C     -0.9366894713     2.6587180776     1.9571757792
C     -2.3084729119     -0.7307912676     1.8830062478
C     -2.4303176454     0.7086277486     1.8297220408
C     -1.6030368345     -2.7015284209     0.8374800228
C     -2.4581100826     -1.5549492448     0.6863275577
C     0.3383127417     -3.6844965051     -0.2100093222
C     -1.0133272927     -3.2592531209     -0.2980311394
C     2.1999095144     -2.6500612175     -1.1487932033
C     0.9973123732     -3.3366636036     -1.4653324915
C     2.8527619013     -0.2622655522     -1.2964581869
C     2.5631189891     -1.5348544872     -1.9361915331
C     1.6833083026     1.9854789749     -1.5799669146
C     2.2835927006     0.8127080968     -2.152545008
C     0.5802863583     2.5618108608     -2.2791230912
C     -0.3343499976     3.4505255618     -0.1812119026
C     -1.4650976256     3.1362599669     0.7026502217
C     -0.4460524424     3.3110803201     -1.565545835
C     -2.9700188486     1.2292114108     0.6494233705
C     -2.6096689252     2.5559332364     0.1501403363
C     -2.7116802552     -0.9878430494     -0.5740239941
C     -3.1655684556     0.3779270242     -0.5410955195
C     -1.2108200656     -2.6395562386     -1.6193714062
C     0.0478691174     -2.7856210643     -2.3574274953
C     -2.0198882753     -1.501572499     -1.7820741907
C     1.7820554627     -1.2484012631     -3.0804232023
C     1.7117385439     0.1937971365     -3.2711478763
C     0.4672426171     -1.7625046181     -3.2296230274
C     -0.0898014396     1.7954996854     -3.3339808293
C     -1.6897425799     -0.5388407081     -2.8759849391
C     0.3998572543     0.5426802801     -3.6956377514
C     -0.4274087107     -0.6501344368     -3.5254867352
C     -1.718669625     2.9428804694     -2.1002150455
C     -2.7633970153     2.5441984677     -1.2717105383
C     -3.0684082577     1.1752635026     -1.6722422026
C     -1.4848850423     1.9152172947     -3.1311219297
C     -2.2635001118     0.7773838921     -2.8257851963


