58

 C     1.5377644739     0.0485489032     4.2660517047
C     0.7252810284     -1.1636844389     4.215177063
C     1.4246410634     -2.1071366868     3.4607420243
C     2.6763396196     -0.1306054381     3.3572213283
C     2.6523295333     -1.4525566078     2.928751444
C     2.6488931746     0.9077533952     2.3369967843
C     0.7618748768     1.0502931531     3.7022921462
C     1.4717271274     1.6942640752     2.5994022764
C     -0.6163222601     -0.8115907712     3.776741258
C     -0.6142136964     0.6056683385     3.4708036525
C     -1.2853051179     -1.6417454884     2.8689189154
C     0.8249602718     -2.8069754374     2.3673048872
C     -0.5522228817     -2.6877371311     2.1466867447
C     2.7645207155     -1.7752664727     1.5503647674
C     1.6787122898     -2.6673762649     1.196195887
C     2.9923060431     0.6375210326     0.9813256961
C     3.150626509     -0.7739684803     0.6078174385
C     2.5117185524     1.5796855676     -0.0269414379
C     0.7511154647     2.3173524157     1.5806854634
C     1.4282983807     2.4855662314     0.2969457917
C     -1.345292056     1.1508501621     2.4056731993
C     -0.7205938946     2.2244335091     1.6160706939
C     -2.2308527145     -1.0771320861     1.9534797103
C     -2.3397465635     0.3181428496     1.7203256138
C     -1.0952411409     -2.7784092549     0.8155442926
C     -2.2910411246     -1.9722676971     0.8042387104
C     1.1499886119     -2.7206178263     -0.1397292703
C     -0.2963520519     -2.8308290152     -0.3628750315
C     2.9407994222     -1.129174593     -0.7420330757
C     1.9369475011     -2.0967763796     -1.1298865649
C     2.6608154444     1.2195733442     -1.4150332409
C     2.9221846593     -0.124005824     -1.7287532872
C     1.7732850779     1.7313620689     -2.465227702
C     0.6696351226     3.0698524193     -0.7562429868
C     0.8273024376     2.6766794158     -2.1611828059
C     -1.4167175859     2.7057444774     0.5107251815
C     -0.7039061654     3.2962591136     -0.568243
C     -2.956725329     0.7674023267     0.4655304902
C     -2.5941137624     2.0250529112     -0.0605036026
C     -2.8530849464     -1.5871976054     -0.3675734373
C     -3.4014487357     -0.2302763506     -0.4973100745
C     -0.8884080916     -2.3946344796     -1.6419756831
C     -2.2595976218     -1.9840498863     -1.6264342017
C     1.3669978108     -1.6886595014     -2.4138810837
C     2.0681690448     -0.5377657228     -2.8325273556
C     1.4097224239     0.5986925489     -3.3500375367
C     -0.0322329684     -1.8132782439     -2.6911466439
C     0.1113710556     0.4458584337     -3.8138691355
C     -0.5789799585     -0.817409784     -3.5919706427
C     -0.5063166855     2.6362964353     -2.7921080804
C     -1.4268273868     3.0358550496     -1.7987454353
C     -2.6122706034     2.2948912675     -1.4921194139
C     -0.8611433674     1.5411746783     -3.6309274137
C     -3.4595779478     0.0439577416     -1.8599342678
C     -2.7758437941     -1.0655519989     -2.5830318611
C     -1.9710546979     -0.4986180177     -3.5444330135
C     -3.0120971274     1.2879489263     -2.4092104249
C     -2.140797419     0.968616723     -3.5081254638


