58

 C     1.3362682072     -0.0321196535     3.6308088079
C     2.4995136405     -0.3005543597     2.9423073013
C     2.4871037074     -1.688462632     2.4736784103
C     0.4909511746     -1.2213789463     3.4958702261
C     1.1977739828     -2.2363284664     2.7431401523
C     -0.7621992792     -0.7924168547     3.0790783871
C     0.5661683973     1.1359463292     3.2966730038
C     -0.7710550998     0.6883810996     3.0568346093
C     1.1238315441     2.1841652465     2.4949145171
C     2.931244891     0.5731342658     1.879425345
C     2.3510951955     1.8685900909     1.732908467
C     2.9559878258     -1.6614567979     1.1419896745
C     3.1735896768     -0.2659835958     0.7389596648
C     2.4378262242     -2.5509574573     0.2289563372
C     0.5163672944     -3.0132891476     1.7535982615
C     1.321324312     -3.3988886427     0.6167477923
C     -1.518097288     -1.5495496276     2.111589727
C     -0.9196055226     -2.7482216019     1.5102900924
C     -2.5116549647     -0.819313287     1.4008665488
C     -1.6324270407     1.3944171589     2.1840068467
C     -2.5454899372     0.6248116346     1.3885563926
C     0.1668654751     3.0569649149     1.8778426945
C     -1.1883198814     2.6422482875     1.6776662352
C     0.5171447135     3.8258830393     0.7143947641
C     2.4745143304     2.4113195891     0.4166584154
C     1.6357785767     3.4900097996     -0.00841852
C     2.8279980856     0.1611113404     -0.5835588478
C     2.5975902264     1.5435981614     -0.7174429933
C     2.2096605258     -2.1566998864     -1.1690031375
C     2.2222799993     -0.7734712462     -1.5525892073
C     0.7111845491     -3.8214253532     -0.5885529726
C     1.2584007276     -3.0424568079     -1.6947972994
C     -1.491985487     -3.2000786469     0.2730409604
C     -0.6717383422     -3.7923401632     -0.7290688291
C     -3.0092753201     -1.2637484914     0.1242506002
C     -2.5114284387     -2.4182354629     -0.4348304479
C     -3.0107245946     1.0844939159     0.1020433157
C     -3.3114125035     -0.0866362317     -0.6913224129
C     -1.6490667843     3.1192733202     0.3496964982
C     -0.6305694416     3.8838156201     -0.2112317386
C     -2.4980211868     2.2916268725     -0.4842873321
C     1.2471227275     3.2988366002     -1.4207786082
C     1.7620867921     2.0586345157     -1.811562399
C     -0.1556661787     3.5787479813     -1.5458358041
C     1.2391501371     -0.2956123677     -2.5329154216
C     0.99830798     1.1492807631     -2.6354159353
C     0.1945682676     -2.5794425817     -2.5277750211
C     -1.0023731525     -3.1727849615     -2.0191348898
C     -2.1770423456     -2.4121139197     -1.8715136249
C     0.1867431809     -1.2208723951     -2.9857794737
C     -3.0336303483     -0.0933483653     -2.0592318748
C     -2.3001945304     -1.2398120484     -2.6074103007
C     -1.1197942039     -0.6891661889     -3.2640342768
C     -2.2108721076     2.2664153701     -1.8917957033
C     -0.9148198088     2.761571722     -2.3621777671
C     -0.2785614058     1.6425007338     -3.0580463282
C     -2.5026209572     1.0931665831     -2.6398704166
C     -1.3097962474     0.7082212329     -3.3384124748


