58

 C     1.2867825014     -0.0374866208     3.5707197232
C     2.457081918     -0.3859664377     2.9330269475
C     2.3638020146     -1.8224035925     2.566100288
C     0.4428703157     -1.2431415319     3.6810135163
C     1.0523194184     -2.2875226059     2.9061473209
C     -0.8780719217     -0.8622791105     3.4803830896
C     0.4910560007     1.0392227176     3.097563522
C     -0.8955135484     0.575662135     3.1289803402
C     0.9507460409     1.8611354381     2.0302356484
C     2.9368366947     0.3640801448     1.8335252012
C     2.2335593692     1.524587832     1.3865271459
C     2.8778711288     -1.9503735405     1.2794058569
C     3.4052896687     -0.6268171886     0.8570824231
C     2.1738351311     -2.7201475713     0.3099108695
C     0.2498253168     -2.957504954     1.8892076538
C     0.8562580701     -3.1801666045     0.5944252575
C     -1.7383337806     -1.7415403317     2.7776879075
C     -1.1521584606     -2.7418946764     1.9068047764
C     -2.8390278004     -1.1761660679     2.1083014075
C     -1.8605074302     1.1063505501     2.2622476509
C     -2.918883623     0.201734488     1.8320051259
C     -0.0648960354     2.6125255142     1.2884484791
C     -1.4872468938     2.2443909552     1.4094043348
C     0.3646054517     3.2819829505     0.1080252303
C     2.4624897417     1.9337418895     -0.0070239681
C     1.5730782442     2.8461315684     -0.5906002006
C     3.5023082174     -0.3178033142     -0.4660596666
C     3.1637448288     1.0348478798     -0.9146748111
C     2.2456008953     -2.356893152     -1.0929882331
C     2.9994578873     -1.252596178     -1.4805944912
C     0.0876762451     -3.0820651336     -0.6496265274
C     0.9378495263     -2.5531719831     -1.6800978758
C     -1.9467119184     -2.7530312432     0.6598689983
C     -3.0286111799     -1.8852174806     0.8420918036
C     -1.3044567826     -2.8102590877     -0.6354315027
C     -3.4948413263     0.3555117728     0.4940323858
C     -3.4372164683     -0.9581438903     -0.1593934456
C     -2.3623512992     2.5371470276     0.3186844213
C     -3.2350479767     1.486558541     -0.2193029344
C     -0.5726742038     3.6438293194     -0.8954358062
C     -1.889922581     3.2501951425     -0.8082633312
C     1.2631819327     2.8071375104     -2.0376337837
C     -0.0504011301     3.2251637646     -2.2106947162
C     2.7955907625     0.9568050661     -2.2710295825
C     2.565131304     -0.4554168094     -2.5784387457
C     1.7320570584     1.709844191     -2.8012008281
C     0.4224786159     -1.64384808     -2.6687470454
C     1.2867121517     -0.5800549094     -3.1324434847
C     0.76459995     0.7846736047     -3.3587248819
C     -1.8382312688     -1.9938760508     -1.6930270838
C     -2.9240474553     -1.0693537389     -1.4486956687
C     -0.9713171325     -1.380439114     -2.6607811718
C     -2.9853577131     1.4075487338     -1.6820880526
C     -2.22695149     2.513515067     -2.0534144674
C     -1.0332065387     2.384044345     -2.8345444044
C     -0.6251879612     1.0618734024     -3.2954388835
C     -2.6870338834     0.1284229277     -2.232523216
C     -1.4964886187     -0.0530834497     -2.9929385154


