58

 C     1.5042033253     -0.0452677402     3.958249252
C     0.6666886575     -1.2197130825     3.8918410531
C     1.1970106422     -2.1310935381     2.9167785295
C     2.4301472146     -0.1543006302     2.9109101951
C     2.3628351676     -1.4701727147     2.3290826212
C     2.3293327794     0.9917527951     2.0181954883
C     0.6652099197     1.0758074653     3.6325404471
C     1.2144839139     1.7800746893     2.503415102
C     -0.690311045     -0.8089254534     3.7632748762
C     -0.6937761152     0.6671719315     3.5730747889
C     -1.5849283735     -1.5760480231     2.9901703325
C     0.3075519481     -2.8424619924     2.038357159
C     -1.093549624     -2.5895005506     2.0999059645
C     0.8238329925     -3.2065629277     0.770877507
C     2.7232253819     -1.65273636     0.9883585963
C     2.1285282793     -2.8037704081     0.3454634454
C     2.5926644799     0.8650522468     0.644243376
C     3.0095360253     -0.4587318943     0.1422616392
C     1.9860052794     1.8566316854     -0.2527683469
C     0.3825690457     2.4605787081     1.600266643
C     0.9384849466     2.7205333289     0.2686187918
C     -1.5769511561     1.3044454387     2.6501328145
C     -1.0625214603     2.3530172494     1.7895847532
C     -2.6604288745     -0.8934998951     2.3310683749
C     -2.6602459706     0.4851842989     2.1301566286
C     -1.8746970567     -2.4905086788     0.8435479341
C     -2.8558319057     -1.5147627612     1.0290974933
C     -0.0179216795     -3.2789790956     -0.4548248332
C     -1.3076284629     -2.6436171352     -0.4547308513
C     2.1703849631     -2.9369718871     -1.0640550863
C     0.8119564381     -3.2253981486     -1.5655676035
C     3.0139120225     -0.636472     -1.2503599768
C     2.6748198878     -1.9217639876     -1.8359164393
C     2.0586880467     1.6397639762     -1.6993633044
C     2.5136250073     0.3796969979     -2.1521858989
C     1.1601054979     2.361291093     -2.5901465458
C     0.0929631652     3.4230176228     -0.6528499326
C     0.2616552892     3.3015659923     -2.0550119014
C     -1.8752420593     2.7815395237     0.6911924984
C     -1.3252834528     3.4614345773     -0.3804944797
C     -3.1765332099     0.7182986933     0.7677442224
C     -3.135364162     -0.5422713521     0.0389705331
C     -2.8837601459     1.8714485331     0.1218099165
C     -1.6631441683     -1.7284548121     -1.5461081024
C     -2.5823677142     -0.6176428521     -1.2693987716
C     0.5294772089     -2.3408068952     -2.6475503367
C     1.7717602709     -1.6805370128     -2.9575488674
C     1.7707529507     -0.3168457236     -3.2192609272
C     -0.7182829589     -1.5853340828     -2.6655554874
C     0.4411629718     1.6307487174     -3.6222317095
C     0.5898905978     0.2554925637     -3.7301503254
C     -0.6979828688     -0.3692793893     -3.3949072253
C     -1.0793464774     3.0625105236     -2.6601466448
C     -2.0040666961     3.0503589996     -1.6306474956
C     -2.7666616086     1.8860844589     -1.3328899491
C     -2.5228571001     0.6452776951     -2.0374668828
C     -0.9713292613     1.9406957549     -3.4896299559
C     -1.6424506894     0.7129554548     -3.167423096


