58

 C     1.3524387907     0.0614152613     4.0333296474
C     2.5102923691     -0.1411831266     3.214115352
C     2.4183755104     -1.4840723285     2.6388551866
C     0.4961859755     -1.1360038861     3.9078723781
C     1.1747997926     -2.0507000892     3.0594701826
C     -0.8231795606     -0.7140876834     3.5570017781
C     0.5591498258     1.182401621     3.8285811399
C     -0.8231625755     0.7204545674     3.5782008008
C     0.8874126964     2.1529646427     2.8455132004
C     2.8391143136     0.7631802081     2.2019700984
C     2.091440227     1.9890948929     2.0687119689
C     2.7301079461     -1.4109266736     1.26574352
C     3.0773857519     -0.0390797987     0.9593949651
C     2.0286982039     -2.1856177914     0.2850100697
C     0.4240031519     -2.7554673631     2.0893661842
C     0.9536164588     -2.9985420814     0.775860315
C     -1.5804878296     -1.3764204557     2.5317585951
C     -1.0020008685     -2.5567825144     1.9618075939
C     -2.436566241     -0.573746755     1.64778997
C     -1.3452803292     1.45665391     2.5174672487
C     -0.3386117954     2.4489931878     2.1120341273
C     -2.2152087244     0.8656003164     1.5448789552
C     -0.3311010021     3.0017187189     0.8268810536
C     2.0997345648     2.5879592001     0.7991083243
C     0.9811814084     3.3176295512     0.2991122159
C     2.9153337988     0.4859283763     -0.3227196922
C     2.7073133142     1.9264326539     -0.3768008442
C     1.9761135293     -1.7104798481     -1.0969956398
C     2.4043045793     -0.3583295657     -1.4277739178
C     1.0402098033     -2.3673630766     -1.9676952381
C     -0.1602596697     -3.3482116801     -0.0755640069
C     -1.3879569357     -3.0437804724     0.6628101726
C     -0.0930540456     -3.1479428134     -1.4263631988
C     -3.0046948127     -1.2331575358     0.5167764372
C     -2.4597349424     -2.4967890047     -0.0054786194
C     -3.4100963144     -0.4897804666     -0.5951389239
C     -2.3621792258     1.5588736796     0.271034585
C     -1.4201719632     2.6303928135     -0.1090452738
C     -3.0364946582     0.8648336337     -0.7745211449
C     -1.1962473245     2.8477151405     -1.4941514739
C     1.1725212248     3.4587238356     -1.110200155
C     2.2339795048     2.5376586685     -1.5245252489
C     0.1131756654     3.2475321051     -1.9550029038
C     1.8464464914     0.3054084868     -2.6104693641
C     1.7410176692     1.7473262215     -2.6268144698
C     0.5154412777     2.3406732552     -3.0407636576
C     0.565411568     -1.7356504153     -3.1194721068
C     0.8576191593     -0.3819924843     -3.3945119771
C     -1.2985198504     -2.7966167631     -2.1803655831
C     -2.4738429944     -2.4461373868     -1.4666219589
C     -3.1339948193     -1.2379153076     -1.8312869023
C     -0.8785018689     -1.9729088132     -3.2535777098
C     -2.6580453076     1.0004926387     -2.1784014228
C     -1.7167505339     1.9382009241     -2.5098868335
C     -0.6032051812     1.5758572406     -3.4165724319
C     -0.414256615     0.2430303111     -3.7721012854
C     -2.6293642883     -0.3414560687     -2.7904515895
C     -1.4798542953     -0.7260038327     -3.5471825017


