58

 C     1.5687604962     -0.028769773     4.0091918821
C     0.7304232295     -1.1813539756     3.8773174457
C     1.2757227033     -2.0632843728     2.895441402
C     2.5286568528     -0.0850295965     2.9660215484
C     2.4063408023     -1.3507310634     2.3031969787
C     2.339491824     1.0739799459     2.1186725298
C     0.723357168     1.0995483917     3.7532429377
C     1.2374616133     1.8562253436     2.6478179235
C     -0.657768598     -0.7792036057     3.7758681341
C     -0.6569532053     0.694931924     3.744736578
C     -1.4939596744     -1.4706591211     2.8989344834
C     0.4141824342     -2.8258256301     2.0541425233
C     -0.9934224628     -2.5611538132     2.0971051012
C     0.9659292474     -3.2337172215     0.7857784496
C     2.7165239277     -1.467811709     0.9187764446
C     2.1371735257     -2.5638486287     0.2323323448
C     2.6135656859     1.0417455931     0.7226258574
C     3.0092486531     -0.2417807915     0.1481299272
C     1.9845096244     2.0682749206     -0.1105070778
C     0.3615889289     2.5513713921     1.7693474833
C     0.817541978     2.8009806831     0.3949283373
C     -1.5171067637     1.3655526962     2.8895296453
C     -1.0405738378     2.422401499     2.0291261286
C     -2.4729502465     -0.7442980362     2.0752880809
C     -2.5239687015     0.6351369988     2.1138727151
C     -1.767217153     -2.5803677635     0.8598073414
C     -2.6204136997     -1.42475894     0.803543528
C     0.1196003122     -3.5472619649     -0.2955473478
C     -1.2377096682     -3.1116239196     -0.315754518
C     2.0107341695     -2.5767466399     -1.2226506026
C     0.7362743339     -3.1777439768     -1.5458110769
C     3.0124537491     -0.3484968529     -1.2606626873
C     2.4426685681     -1.5005421953     -1.952334908
C     2.1434937094     1.9521236639     -1.5275766656
C     2.7026832029     0.7739646728     -2.0495517972
C     1.1232735754     2.4014042758     -2.4791207995
C     -0.1345134856     3.2632097909     -0.5500284689
C     0.0275388298     3.0901623199     -1.9902722208
C     -1.9587592317     2.5229966155     0.929275962
C     -2.8100738737     1.3635548252     0.9042090247
C     -1.5576349046     3.1174003537     -0.2673311609
C     -2.8645571792     -0.732171552     -0.4185197695
C     -3.095121903     0.7107747295     -0.3421737823
C     -1.4596563606     -2.435216102     -1.5742551648
C     -0.1918336652     -2.5078124151     -2.342202153
C     -2.2729429984     -1.2951502046     -1.6523638632
C     1.6183968087     -0.9977457399     -3.0778291144
C     1.9165247548     0.3646846781     -3.2236645962
C     0.9441901897     1.3505315318     -3.5000398081
C     0.2369985915     -1.4228353115     -3.1922239585
C     -2.0291908662     -0.4119015914     -2.7855835625
C     -0.3712314999     0.916453964     -3.8101161171
C     -0.7303707079     -0.4484509987     -3.5248692563
C     -1.2752117493     2.8060439452     -2.555706321
C     -2.2353536491     2.7424186766     -1.4499915274
C     -2.9228839241     1.5055470057     -1.5227170638
C     -1.4773943891     1.7377014386     -3.4060936482
C     -2.4965350207     0.8871715711     -2.7727617205


