58

 C     1.2978859855     -0.2766793999     5.0446954933
C     0.4908484307     -1.3308134149     4.6332157446
C     1.1359077603     -2.0415295501     3.5364650842
C     2.5021654998     -0.3154245646     4.2353041301
C     2.3721356451     -1.3824592179     3.2277131232
C     2.7627196999     1.0030270301     3.7843220529
C     0.6023460286     0.9556541403     4.6187569058
C     1.4847484346     1.8060694064     3.9675826234
C     -0.7223732531     -0.8181316071     4.0392349384
C     -0.6533988396     0.606929851     3.9458123889
C     0.1837196049     -2.3303030315     2.50514938
C     -1.0373298103     -1.5854986162     2.8759423167
C     0.5587608339     -2.3478898805     1.1476112038
C     2.6808700864     -1.1451257341     1.8339159134
C     1.8418942507     -1.7767470633     0.7904213641
C     3.1642329548     1.2051433832     2.4914587643
C     3.2465131434     0.1419815305     1.512323284
C     1.1610701825     2.3912351534     2.7025905499
C     2.3291844066     2.261341904     1.8758771149
C     -1.0196205667     1.2273639723     2.7032396328
C     -0.1280344937     2.1843220584     2.0552040944
C     -1.7621564923     -0.9936390308     1.8679765977
C     -1.8595608934     0.458065685     1.8085935989
C     -0.5403909942     -2.3142270849     0.1601760898
C     -1.7570095557     -1.7121688136     0.6006493358
C     -0.2963402257     -2.3470107651     -1.2561414601
C     1.9012141084     -1.3166424098     -0.5702316657
C     1.0192248676     -1.862399275     -1.6231038916
C     2.8821595207     0.7406593912     0.2746211321
C     2.2390530839     2.0364714078     0.5223318365
C     2.397783339     0.00249266     -0.7937333463
C     -0.2038272498     2.3349587961     0.6057053085
C     1.0136788715     2.2984077077     -0.1790934131
C     -2.2475317251     0.9936888143     0.5508888509
C     -1.4079929151     1.9656062354     -0.1200167526
C     -2.6816131606     -1.275747971     -0.3350517299
C     -3.0556243454     0.1422574615     -0.2762752886
C     -1.4180796019     -2.2241768754     -2.214430822
C     -2.6589262128     -1.7097459382     -1.6893800066
C     -1.1326063283     -1.92477734     -3.6012189244
C     1.1918168133     -1.3398224898     -2.9196376288
C     0.2081856111     -1.5447036777     -3.9414799585
C     1.8416075577     0.7816516457     -1.8919174073
C     0.9760475954     1.8992744613     -1.5423650563
C     1.6040681662     0.0733576175     -3.0467164732
C     -1.4738133874     2.0896356075     -1.5725210889
C     -0.224984694     2.0934178717     -2.3282038347
C     -3.3693228365     0.5138955351     -1.562452711
C     -3.3596117552     -0.6838422554     -2.4325855778
C     -2.6308913526     1.5304578383     -2.2596907098
C     -1.9984869764     -1.0284562793     -4.3870772057
C     -3.0194450628     -0.3180473993     -3.7069634282
C     -2.5882262324     1.1381644635     -3.6350729009
C     0.1536333935     -0.3887540897     -4.8274184543
C     0.7816614806     0.6599351772     -4.0571006346
C     -0.1899285831     1.6431839868     -3.6916932716
C     -1.1721848119     -0.0587102407     -5.0825738591
C     -1.4158250205     1.2148232326     -4.3736313316


