58

 C     1.2602761058     -0.0700571969     4.1314285389
C     2.4540228758     -0.379302309     3.4953765979
C     2.2775721671     -1.650655486     2.7274421874
C     0.3569009888     -1.2219387754     3.9052824441
C     0.9587546988     -2.1038210121     2.8925882564
C     -0.9214867484     -0.7666581971     3.7809843673
C     0.5144271581     1.0998072874     3.7461227972
C     -0.8851950708     0.7056318308     3.732232183
C     1.0122548612     1.9755708197     2.7126944247
C     3.0722113346     0.5456900174     2.6562131409
C     2.3565917292     1.7126397622     2.2493004022
C     2.832825776     -1.4718312682     1.4379763987
C     3.4412012344     -0.1618844646     1.4187432994
C     2.1319297095     -1.9195389239     0.2832523702
C     0.1882483388     -2.5167062132     1.7548597704
C     0.8346110871     -2.5740730624     0.4498605166
C     -1.7698721104     -1.250962317     2.7368179511
C     -1.2778157863     -2.2456446291     1.801694876
C     -1.7368106547     1.0739591251     2.7081116792
C     -2.4654779733     -0.1235593213     2.2228461447
C     0.0389847407     2.5306509995     1.7316330691
C     -1.3599613226     2.0838363328     1.7391724032
C     0.5288733959     3.0036218692     0.4847616664
C     2.685227985     1.9082013259     0.8371879771
C     3.2904656756     0.6745482243     0.3222216068
C     1.8483981132     2.6071936683     0.0221459616
C     2.423254658     -1.2244305304     -0.9744705264
C     2.8927104463     0.1482712838     -0.941273537
C     1.7376998191     -1.6593321466     -2.1380295065
C     0.0172171594     -2.8160442751     -0.7450213251
C     0.5195047445     -2.4854654773     -2.0275702649
C     -2.0162005902     -2.3697038891     0.6310921781
C     -1.4135905253     -2.855405071     -0.6118788588
C     -3.0906812875     -0.1625618742     0.9610621187
C     -3.0765131129     -1.4290197476     0.2851784925
C     -2.1264358774     2.1152698081     0.5486982664
C     -3.0496075216     1.019413527     0.1648278856
C     -0.2851807342     3.0828089478     -0.6934094309
C     -1.6185595183     2.6767457523     -0.6619067891
C     1.7884811979     2.305041122     -1.4036105899
C     2.3727947725     1.0972436669     -1.9280220577
C     0.5214471206     2.7549252681     -1.8691250959
C     1.641594454     -0.8436444283     -3.2710340381
C     1.8192163316     0.5822945412     -3.1309129985
C     -0.3471944357     -2.1042111116     -3.1258068426
C     0.3475783433     -1.1005370821     -3.8898666835
C     -2.2311871882     -2.4244755078     -1.6668723117
C     -3.2078913232     -1.4696897583     -1.1114125134
C     -1.725304439     -1.9275151583     -2.8862719353
C     -3.0950273576     0.9452208953     -1.255943451
C     -2.2094093345     1.9693205398     -1.7958515503
C     -3.187810924     -0.3167020526     -1.9151425649
C     -2.3433156962     -0.5960204379     -3.0900780888
C     -0.0726209441     2.1505207848     -3.0007551108
C     0.6629311354     1.1897889689     -3.7176387113
C     -0.2557365657     0.1255075299     -4.1359052323
C     -1.4820744788     1.7293262629     -2.9471053982
C     -1.5772466072     0.428341563     -3.6368945991


