58

 C     1.2877458555     -0.0805430425     3.7500307
C     2.3829895861     -0.3927572122     3.0113369582
C     2.198686441     -1.7533277422     2.4582925685
C     0.4211570163     -1.2849512269     3.8217122841
C     0.879726857     -2.2046015842     2.7959155223
C     -0.8669199839     -0.8395922586     3.8325761851
C     0.4399361706     1.0789476238     3.4352396733
C     -0.8740700435     0.6457833805     3.6718978329
C     0.7369038166     1.8821622259     2.2815772054
C     2.8195426408     0.464350513     1.9518223603
C     2.063178628     1.6817891993     1.6554205836
C     2.6445615718     -1.7162110487     1.1549145721
C     3.2261887987     -0.3713301487     0.8842195555
C     1.8874026148     -2.3503970914     0.1180614782
C     -0.0218823579     -2.6252962566     1.7637043845
C     0.5208028756     -2.7631728452     0.3914111843
C     -1.8557159749     -1.3732375989     2.9667000087
C     -1.4541109628     -2.3079443194     1.9419492099
C     -1.9411896335     0.9698506045     2.8320831179
C     -2.73633383     -0.2612314195     2.6258093563
C     -0.3748738266     2.3419717594     1.4461956987
C     -1.7307658375     1.8864227936     1.7451962805
C     -0.088175631     2.8559225923     0.0908744901
C     2.2866264761     2.2226214308     0.3978969114
C     1.2653474106     2.9625952797     -0.3065444593
C     3.3685218219     0.1187780502     -0.4325285493
C     3.1173282663     1.5325966407     -0.6171767729
C     2.3014778124     -2.0060054997     -1.2137558332
C     3.0892132409     -0.7614937264     -1.5050098332
C     1.4717593227     -2.2336582448     -2.2995008662
C     -0.39885526     -2.770404     -0.7551205906
C     0.0782441529     -2.4382967629     -2.0647586113
C     -2.3239909741     -2.3481119536     0.8015364164
C     -1.774551491     -2.5271887163     -0.5517080563
C     -3.5737092652     -0.3507516887     1.5411871949
C     -3.4559020829     -1.5237539361     0.7055853815
C     -2.7056554624     1.7960951837     0.6829221495
C     -3.6803081831     0.7852193172     0.6608646878
C     -1.0722845369     2.679296001     -0.9948738776
C     -2.30507038     2.0791654332     -0.6988912087
C     -0.6267594935     2.4710292028     -2.3502721621
C     1.6434289831     2.9526770578     -1.6955574283
C     2.7722740297     2.0179275577     -1.8726721669
C     0.7324025715     2.7067049547     -2.6919954577
C     2.6708123563     -0.260734363     -2.7856099401
C     1.6425401651     -1.1513365956     -3.2552036425
C     2.4848682676     1.139489699     -2.9756130364
C     1.2369451103     1.5921281763     -3.5327488854
C     -0.6337670295     -1.518559505     -2.9224854033
C     -1.0430220229     1.2879566378     -3.068309219
C     0.3632178276     -0.688845237     -3.6057224111
C     0.1549329627     0.7170446376     -3.7132876832
C     -2.5320474788     -1.7223252741     -1.4676477615
C     -3.5551555698     -1.0900972952     -0.6835504568
C     -3.7204489704     0.2839135422     -0.7156428781
C     -2.8814930914     1.0829426358     -1.5529850269
C     -1.8783701793     -0.9956953509     -2.5113022376
C     -2.0833340577     0.4764698138     -2.5764594965


