58

 C     1.5335769191     -0.0461665074     4.1236262654
C     0.7919835015     -1.2099556685     3.8164289798
C     1.512352942     -2.0896339025     2.9361226902
C     2.6576945379     -0.0577801689     3.237538804
C     2.7444717822     -1.3497570804     2.6015748847
C     2.5989352713     1.0928743846     2.3912200038
C     0.6919946165     1.0504245473     3.7116178294
C     1.370984941     1.8226640626     2.724260346
C     -0.5923109879     -0.8405037794     3.5241989165
C     -0.6510035891     0.6259442438     3.4458054361
C     -1.2870571092     -1.5894244041     2.6094044305
C     0.7950119751     -2.7945429782     1.914034608
C     -0.6383754004     -2.627092983     1.8261815038
C     1.4744060641     -3.0493645899     0.6668583678
C     3.2532706659     -1.4294780965     1.3041661409
C     2.7308545987     -2.4442130384     0.4319622643
C     3.003219358     1.0066059083     1.010923979
C     3.4282548648     -0.2467455734     0.4915057646
C     2.3743675417     1.9092545565     0.1033690999
C     0.6196885706     2.5229817081     1.7539319494
C     1.2770663956     2.7358033011     0.4928378209
C     -1.4359517701     1.2744167872     2.4676945985
C     -0.8358544917     2.4008378292     1.740565386
C     -2.2973063061     -0.9519994129     1.784964336
C     -2.4465439489     0.4619055053     1.7639303108
C     -1.3231166278     -2.6663763267     0.5789063603
C     -2.4269224357     -1.7087070479     0.5860719732
C     0.7661713634     -3.1018337887     -0.6045241426
C     -0.6437909421     -2.9529899414     -0.6633278697
C     2.7709124217     -1.9878881109     -0.9278614184
C     3.0849193437     -0.6170880706     -0.8950593277
C     1.580100485     -2.4164103186     -1.5880565915
C     2.2093746883     1.5968719766     -1.3149018184
C     2.422488563     0.2814063277     -1.7976656565
C     0.540636308     3.1024252823     -0.6904632273
C     1.1564039058     2.4208004916     -1.8305111803
C     -1.5247100833     2.8783624901     0.5937608922
C     -0.8250161946     3.2715543244     -0.6370979984
C     -3.0958071244     0.9952102589     0.6178677471
C     -2.731431816     2.2844892837     0.1692939523
C     -2.9688254833     -1.1484575787     -0.6102931723
C     -3.4204653956     0.1930158669     -0.5590334131
C     -1.2112029552     -2.4580354224     -1.8596511487
C     -2.4605611403     -1.6633497403     -1.8737000022
C     1.0033560455     -1.6491080842     -2.6253740907
C     1.4817226626     -0.2571880212     -2.8030974817
C     -0.373252623     -1.9371651643     -2.9034157098
C     0.3925498781     1.9942446746     -2.8974475971
C     0.6044188101     0.6610486606     -3.438207123
C     -1.6504245897     2.9065616552     -1.7999230202
C     -2.8296993511     2.3143432459     -1.284356691
C     -3.3139558907     1.0595519437     -1.7431917571
C     -1.0510047397     2.3145598241     -2.9401348987
C     -2.4806737483     -0.8731973765     -3.0184999814
C     -1.1688027726     -1.0270147604     -3.6624237623
C     -0.6835089728     0.2337621792     -3.9276741037
C     -2.795995508     0.5433741209     -2.9515772149
C     -1.7076170634     1.2361724557     -3.5731552127


