58

 C     1.177913681     0.0218548052     4.1115915994
C     2.3272897577     -0.270771759     3.4637484142
C     2.264661216     -1.7090432205     3.0488299004
C     0.3124784373     -1.214672202     4.0890183454
C     0.8909492734     -2.1427174434     3.1508182766
C     -0.9735727213     -0.8126596456     3.9848327105
C     0.3587453212     1.1425392287     3.7253977623
C     -0.9857992453     0.6855215678     3.9878749171
C     0.6463830717     1.8535397122     2.5002769671
C     2.7464514738     0.5019262926     2.3047107757
C     1.8733749143     1.4881986509     1.7359637185
C     2.9292519403     -1.8094674196     1.8717341137
C     3.3678471724     -0.4437393745     1.4370430795
C     2.3378202574     -2.4390588953     0.7478835246
C     0.16325652     -2.5015252879     1.9546165433
C     0.9404460806     -2.7567326344     0.7363548796
C     -1.8048560235     -1.2555203777     2.8762437056
C     -1.232058636     -2.0014683432     1.7927616372
C     -2.0095690245     1.0734103914     3.1886515556
C     -2.6390562742     -0.1395394487     2.5729947369
C     -0.4893613332     2.3957122727     1.7456579034
C     -1.8111265652     2.0175262216     2.1501512044
C     -0.3218342423     2.8302813273     0.3513479345
C     1.9123141749     1.6702771991     0.2681128061
C     0.9056210725     2.5100508079     -0.3844375142
C     3.2760865451     -0.3801666997     0.0681987287
C     2.891413899     -1.73235467     -0.391881128
C     2.649232379     0.7379373295     -0.5723795979
C     2.3529654482     -1.9184386561     -1.6040125466
C     0.2808650784     -2.7974919619     -0.5767735208
C     1.122397057     -2.6901925958     -1.7286358536
C     -1.7838041762     -1.7731290723     0.4389915214
C     -1.1073110081     -2.3486310311     -0.725322226
C     -3.0282106576     0.1817828218     1.2956899875
C     -2.7584631332     1.6259492793     1.1234177076
C     -2.7175856076     -0.6832315117     0.1962786649
C     -1.513175251     3.0029471226     -0.421548982
C     -2.662366482     2.1660637418     -0.0984081208
C     -1.4914443031     3.0366071291     -1.8321886946
C     0.877971629     2.5409228361     -1.8172200302
C     -0.3145183889     2.8954209406     -2.5255626128
C     2.3229828245     0.5508183196     -1.9892645212
C     2.2928559144     -0.805198219     -2.5513991143
C     1.513486985     1.4989993632     -2.6148140848
C     0.6139517357     -2.33431665     -2.9960527993
C     1.3818906472     -1.1676244915     -3.5405585099
C     -1.5769648809     -1.9814918358     -2.0288623455
C     -0.7212167613     -2.0664828563     -3.1733808964
C     -2.8909371305     -0.0962628751     -1.1357994832
C     -2.9885139753     1.361959638     -1.2763311243
C     -2.4575185715     2.0284903726     -2.3778881227
C     -2.395410781     -0.7931622853     -2.2378105005
C     -0.5273939723     1.9297726619     -3.6224903811
C     0.6159963403     1.1337521949     -3.737552437
C     0.4589071055     -0.240899014     -4.0929205003
C     -0.8514711989     -0.8262146266     -3.9644635613
C     -1.829305356     1.3376806115     -3.4474451751
C     -1.9229622717     -0.0877377257     -3.4537892376


