58

 C     1.3045954005     -0.0714892776     3.6852111938
C     2.4751084235     -0.3541968125     3.001816294
C     2.3792983274     -1.7708821706     2.5363201281
C     0.456423871     -1.2656264161     3.6954341593
C     1.1297383046     -2.3167581651     2.9775417894
C     -0.8416628918     -0.869268697     3.3301220748
C     0.5258370469     1.0531023574     3.2878347351
C     -0.8358709325     0.5830292492     3.1519262692
C     1.0537002456     2.0074459275     2.3580095096
C     2.9499792387     0.4643606356     1.951886527
C     2.2845399595     1.6990072323     1.6162414957
C     2.7668756403     -1.8011071588     1.1989844966
C     3.2876381219     -0.4607843139     0.8810927088
C     1.9866754066     -2.5344477891     0.2123868201
C     0.4048482347     -3.101849201     2.0817546797
C     0.9159069979     -3.3001298982     0.7315269597
C     -1.6456084217     -1.7025136127     2.4626043743
C     -1.0368697705     -2.8993022786     1.9521842083
C     -2.6380189637     -1.0479896729     1.6443852433
C     -1.7318340938     1.2023002331     2.2463286707
C     -2.6689429339     0.3692780918     1.5290430352
C     0.0680232038     2.815250966     1.7108195874
C     -1.3050092942     2.4008722903     1.6222287732
C     0.3664666014     3.4821076288     0.493473831
C     2.4343341886     2.1886324233     0.2373630672
C     1.458923179     3.1253705924     -0.2915967031
C     3.3066469296     -0.0556569372     -0.4134516183
C     3.0381817217     1.3380556926     -0.7369815158
C     1.8920285947     -2.0049511097     -1.167922889
C     2.7041453657     -0.8852695299     -1.4643492771
C     0.6684847876     -2.1838441459     -1.9867552155
C     -0.2154316589     -3.5275650897     -0.1165700005
C     -1.4022720163     -3.3297493898     0.6408745895
C     -0.3693879912     -2.9611714671     -1.4099934023
C     -3.0369778087     -1.5747942822     0.339520724
C     -2.361063801     -2.6685921676     -0.1829457308
C     -1.7794679636     -2.5734801996     -1.5314412302
C     -3.1590366693     0.7485035964     0.1939015179
C     -3.3790111053     -0.4626984589     -0.5283459961
C     -1.8368248299     2.808342951     0.3074341634
C     -0.8364948827     3.5300642113     -0.3380829707
C     -2.6960647304     1.9329368922     -0.454579795
C     0.9792890661     3.076167206     -1.7023365565
C     -0.4682825657     3.2885640855     -1.6972166635
C     2.6207246117     1.358537884     -2.0981625543
C     2.3619711875     0.0129759715     -2.506111815
C     1.5354932336     2.1566578352     -2.5750053703
C     0.270153116     -1.1718890637     -2.9872416485
C     1.1403073465     -0.0647386722     -3.2382324456
C     0.6563501547     1.2937270626     -3.3831590903
C     -2.1457066196     -1.5558303425     -2.3675246852
C     -3.0815485937     -0.5218826342     -1.9060516852
C     -1.1298840053     -0.9147476253     -3.2038858275
C     -2.4943626309     1.8951088048     -1.8883257717
C     -1.3095216294     2.515759024     -2.4932268184
C     -0.7198358846     1.5332410617     -3.4048015298
C     -2.7191297913     0.6672625104     -2.5656304834
C     -1.5785660379     0.4065441727     -3.4383223265


