58

 C     1.4044919459     -0.3082289339     4.7816272955
C     0.5073965911     -1.2865917162     4.4950722925
C     1.0257737867     -2.1539185499     3.4237943301
C     2.5452690261     -0.4850951133     3.8481303245
C     2.2729664753     -1.6235106063     2.9495065591
C     2.7838385904     0.7477380939     3.2796079434
C     0.7541263808     0.991829043     4.4481005226
C     1.6678058496     1.6876432349     3.6706046069
C     -0.742180551     -0.6908518425     3.9832336338
C     -0.5764109183     0.7378517885     3.8972386192
C     -0.0173064874     -2.3520833073     2.5150609873
C     -1.1365745135     -1.4129762381     2.8539172679
C     0.2645808041     -2.5295850718     1.1599376676
C     2.4786487455     -1.5028747256     1.5352341048
C     1.5655667002     -2.2013475479     0.6404186734
C     2.9930633167     0.9114340489     1.88634028
C     3.0141086965     -0.2286785415     1.0006801359
C     1.277322998     2.3642791854     2.5037261179
C     2.2602798013     2.0811521364     1.4509720561
C     -1.0080636308     1.3967073143     2.6995928925
C     -0.1016861922     2.3837963056     2.1076762518
C     -1.8131015673     -0.7742641002     1.7851658924
C     -1.8507700395     0.6615195149     1.7394328768
C     -0.8938042253     -2.4805824168     0.2815715552
C     -1.9449153286     -1.5394039691     0.5523173539
C     -0.679083463     -2.8992382593     -1.0409062363
C     1.6428423561     -2.0117841633     -0.8134746238
C     0.6187515946     -2.5470579854     -1.6484935753
C     2.8469473258     0.0692961455     -0.3658809296
C     2.3429781812     -0.8993788602     -1.324542753
C     1.9747707865     2.3091094258     0.0964240497
C     2.476310994     1.366647046     -0.8547636992
C     -0.3304921537     2.7822642389     0.7796485221
C     0.718539496     2.9216451343     -0.2104322235
C     -2.2096217467     1.2479605469     0.4533534362
C     -1.52159685     2.4230116073     0.0715341199
C     -2.7320930799     -1.023461067     -0.5432630778
C     -2.8509962113     0.4398839717     -0.6139848105
C     -1.6708152748     -2.7138048243     -1.985310233
C     -2.7459717173     -1.7843057265     -1.7620786432
C     0.3583414519     -2.0784351582     -2.9723256602
C     -1.033442661     -2.3846924335     -3.2675183506
C     1.8535827867     -0.2091399475     -2.4806930677
C     1.8430627743     1.1969460673     -2.1321190259
C     0.8833995632     -0.7753051906     -3.3671640287
C     0.1391504371     2.8174877917     -1.504786221
C     -1.2890950076     2.7055742591     -1.3204188204
C     0.7462011743     2.0143512059     -2.5589343181
C     -2.9919389106     1.031028032     -1.903531424
C     -2.0765492704     2.1137295371     -2.2783051372
C     -2.981971433     -1.1539490323     -3.0300691239
C     -1.8431721016     -1.5078736445     -3.9448224566
C     -3.1171354338     0.2215194295     -3.0967621309
C     0.022210678     0.1313176679     -4.0800449549
C     -0.0853983311     1.5159962862     -3.5957061418
C     -1.5047992442     1.8115632504     -3.5698798504
C     -1.3082398847     -0.2825962578     -4.4748254946
C     -2.2251030793     0.7577329013     -4.1488833769


