58

 C     1.4668896997     0.1054859613     4.2418658985
C     0.6860068332     -1.1062931108     3.9729295549
C     1.476852185     -1.9302996246     3.1950561061
C     2.6469699226     0.0846871516     3.3854165873
C     2.7346317036     -1.1940221459     2.8435597302
C     2.5963807341     1.2460592759     2.4924499208
C     0.6870689095     1.1886181932     3.8826522685
C     1.4428204007     2.0270302626     2.9570964492
C     -0.5959421031     -0.7049043761     3.4322087859
C     -0.6485444607     0.7440822081     3.4654306029
C     -1.1624924995     -1.3704487853     2.3130923003
C     0.9864831403     -2.5422070535     2.0098015415
C     -0.3629408078     -2.3827371062     1.6011354916
C     2.9390849451     -1.3769570538     1.4677154677
C     2.0130576198     -2.3952170014     0.9933056842
C     2.8132720027     1.1124312162     1.0991505137
C     3.1510232168     -0.2320108196     0.6025277334
C     2.1158676623     2.0417663693     0.1508170973
C     0.7411275441     2.790957868     2.0858287029
C     1.2086690703     2.968751119     0.7191853995
C     -1.3759451544     1.4877743891     2.5144086697
C     -0.7398577497     2.7035275665     2.0293330401
C     -2.1911566063     -0.6548065868     1.5706117358
C     -2.2962257527     0.7912633155     1.6245720299
C     -2.7363037658     -1.3481983298     0.4464012651
C     -0.6776282352     -2.7264467735     0.2157214362
C     -1.9604080018     -2.3861856161     -0.2413845998
C     1.7508707876     -2.5772427404     -0.3675256054
C     0.3882034022     -2.9397775782     -0.7788776597
C     3.0298721944     -0.4931143876     -0.7565885459
C     2.5671526231     -1.7843664926     -1.2444754155
C     1.9024612521     1.6906006084     -1.2581860235
C     2.5659720176     0.5058452818     -1.7244187611
C     0.7120509728     2.1128795946     -2.0035423204
C     0.0894203616     3.4009579807     -0.0261097345
C     -1.1080469732     3.2159748291     0.8032692721
C     -0.2051913863     2.965673432     -1.3155785975
C     -2.8363159054     1.492685009     0.4401521799
C     -2.1322459669     2.6598965616     -0.0064099714
C     -1.6556928657     2.7304228859     -1.3761057186
C     -3.5413574813     -0.6959631285     -0.4969012617
C     -3.4899493916     0.7427018406     -0.5822338047
C     -2.2895553213     -2.288811202     -1.6530677752
C     -3.3025978169     -1.2722511104     -1.8034478181
C     0.0578806658     -2.8042228355     -2.1572592214
C     -1.2642519141     -2.3885485677     -2.5844228473
C     2.1764311205     -1.6126879552     -2.5831438193
C     2.1416474292     -0.1630358028     -2.8736191821
C     0.9931786676     -2.1534385059     -3.0375834304
C     0.1419461657     1.2664064889     -3.0830842998
C     -1.1013229439     -1.2947749228     -3.5826414891
C     0.9117884832     0.1341324132     -3.5310476596
C     0.2658786816     -1.1217383433     -3.792979978
C     -2.1799408247     1.8810838971     -2.3282343828
C     -3.2626878449     1.0428247328     -1.9626964923
C     -3.0971757085     -0.2091673997     -2.6903592796
C     -1.2761220938     1.1499185151     -3.2267275267
C     -1.9110608989     -0.1345636513     -3.4870422139


