58

 C     1.4901357708     -0.218430853     4.3560004694
C     0.6519707159     -1.3324586507     4.3068356702
C     1.190614213     -2.3581102957     3.4422670955
C     2.6160612847     -0.4755479655     3.4627819858
C     2.488563292     -1.8503039422     2.9785432722
C     2.6077390679     0.5545078928     2.4986481754
C     0.7391222147     0.9176107875     3.9061394567
C     1.4307532061     1.4093566192     2.7716080555
C     -0.6874455271     -0.956806401     3.8987366496
C     -0.6505777772     0.458976583     3.65693723
C     0.192139319     -2.6297683893     2.4830887624
C     -0.9990660618     -1.7826478783     2.7941290209
C     0.5167565846     -2.9129150739     1.101604176
C     2.8335953071     -2.103474635     1.6826097395
C     1.9255693877     -2.8752387464     0.8051415059
C     2.9989979104     0.3320049429     1.135298397
C     3.356637814     -1.0320724888     0.8247668384
C     2.4669698308     1.1760744691     0.0785880606
C     0.7495019793     2.0312400078     1.6922272442
C     1.3452723628     2.0976273819     0.392169972
C     -1.3530950137     0.9764885118     2.580504288
C     -0.7299904464     2.0640191417     1.802820607
C     -1.7916783421     -1.3030886839     1.7443406922
C     -2.1924209526     0.0927849134     1.7849523863
C     -0.4359656081     -2.6275061033     0.0424188849
C     -1.6965932083     -1.9329038472     0.4233076341
C     0.0072289294     -2.4924606062     -1.3360031214
C     2.3232169945     -2.6398412356     -0.5083512049
C     3.2456059953     -1.4787582668     -0.4986710126
C     1.4260110039     -2.4725239537     -1.5671125865
C     2.5993362569     0.7490733827     -1.3014165532
C     2.9093833564     -0.646564942     -1.5559774665
C     1.9753174712     -1.4099073355     -2.4021328562
C     1.8499248867     1.3977806139     -2.3255676249
C     0.5559121142     2.7079055737     -0.6897890031
C     0.8674215216     2.4377031366     -2.0367540633
C     -1.4602978037     2.6035486878     0.7872172245
C     -0.8152480594     3.119271717     -0.4122756445
C     -2.964571134     0.6471980127     0.7114671573
C     -2.7586641293     2.0388829471     0.3879340173
C     -2.535805508     -1.4382558304     -0.5563981681
C     -3.347236259     -0.2304167176     -0.3511298328
C     -0.8367946767     -1.827123486     -2.3460501006
C     -2.1889575973     -1.4834977164     -1.9791320472
C     1.1872027091     -0.7525273061     -3.2955172664
C     1.3433013564     0.6609588948     -3.4209018829
C     -0.2451008583     -1.0464971098     -3.3823182412
C     -0.1809058379     2.3933787415     -3.0664176743
C     0.0697326753     1.2153588567     -3.8145471341
C     -0.8981545067     0.1607063024     -3.8731728449
C     -1.7902409379     3.1762878184     -1.4129634743
C     -3.0233104728     2.5179710962     -0.9042353604
C     -1.523907665     2.6979695793     -2.733979839
C     -3.6625571577     0.2867034847     -1.6312509605
C     -2.9065381195     -0.477755678     -2.6335465876
C     -2.2400932197     0.4494105204     -3.5147232046
C     -3.4809742297     1.6528207581     -1.9125777056
C     -2.5638044618     1.7637827833     -3.070171217


