58

 C     1.5496228645     -0.0868131902     4.0587639089
C     0.7458856874     -1.235631233     3.9405360526
C     1.3351461982     -2.1671991404     3.0020870689
C     2.5035523034     -0.1598053637     2.9679126067
C     2.337815896     -1.3973308711     2.259691415
C     2.42023541     1.0169114703     2.1938466213
C     0.6873816721     1.0053193809     3.7009921398
C     1.2941178671     1.8034840621     2.7115685672
C     -0.6603679977     -0.863384695     3.7547532586
C     -0.6720505772     0.5616885809     3.4658581914
C     -1.463809107     -1.7349320469     3.0317954938
C     0.4888463873     -3.0495101867     2.3433732376
C     -0.9193017085     -2.9565418771     2.5438564927
C     0.710172748     -3.3296836497     0.922070727
C     2.4001727646     -1.4719491481     0.8177763772
C     1.6689987075     -2.5764384517     0.1806760044
C     2.669603073     0.9886101903     0.7840121445
C     2.67045343     -0.2666242592     0.0490857317
C     2.3013902179     2.1682539401     0.1230406766
C     0.5117841057     2.548164671     1.8192687797
C     1.2726258479     3.0456925613     0.7120022427
C     -1.4249525102     1.09664407     2.3748310602
C     -0.8899713039     2.2407276378     1.6281809122
C     -2.3455419585     -1.204175743     1.9819412853
C     -2.3357397113     0.1763456108     1.666735885
C     -1.5477489435     -3.2351501773     1.2664770551
C     -0.5813645081     -3.6524794163     0.3221010552
C     -2.4541883683     -2.1978266024     0.9264079502
C     -0.808928996     -3.3823883299     -1.0336646047
C     1.4658471035     -2.5091339017     -1.2402782279
C     0.3108540965     -3.0721528518     -1.835180226
C     2.3931817727     -0.1901819408     -1.4015556196
C     1.8661741773     -1.3391652679     -2.0147653829
C     2.2585077959     2.3095517682     -1.313341873
C     2.2004361992     1.1177204393     -2.0990787354
C     0.6677566506     3.7058231164     -0.3249014882
C     1.3947842599     3.4252966476     -1.5798521929
C     -1.4879992029     2.6539709273     0.3479133512
C     -0.744647639     3.5405540667     -0.5522715214
C     -2.7633359889     0.5203198205     0.3413304318
C     -2.4304712208     1.7952145659     -0.2662497384
C     -2.6197966262     -1.8151150617     -0.4548360649
C     -1.8989206681     -2.5140981136     -1.457421174
C     -2.9194766051     -0.4368000919     -0.6908966813
C     -0.1155177293     -2.175264683     -2.8817227955
C     0.9099981376     -1.2106219825     -3.1188940769
C     -1.4534276647     -1.7935025113     -2.6565866316
C     1.3336586006     1.1807619712     -3.268888344
C     0.5587389926     0.0097556437     -3.6268260699
C     0.457247158     3.3730067571     -2.5896316728
C     -0.9025565799     3.4474092827     -1.9622887352
C     0.4696544275     2.2934162748     -3.4794723775
C     -2.4925601663     1.6269461953     -1.7026925768
C     -2.6337789844     0.227081269     -1.9600817384
C     -1.825158621     -0.4338559299     -2.9373763121
C     -0.8695738011     0.3773726632     -3.6707224962
C     -1.6909171597     2.4303339918     -2.5511399661
C     -0.9025401649     1.7713791614     -3.5682693907


