58

 C     1.4649571067     0.0642826198     4.2560968819
C     0.6627255601     -1.1338222313     4.2184291383
C     1.3314607606     -2.0962159397     3.4296494094
C     2.5638433287     -0.1214016347     3.3184998346
C     2.5082994435     -1.4348220227     2.8381712096
C     2.5404491583     0.9267266809     2.3241422411
C     0.662662028     1.0639947292     3.6595850667
C     1.3491989232     1.7061797986     2.5648139098
C     -0.6965897957     -0.7866521806     3.8262389993
C     -0.6943692759     0.627222202     3.4434253635
C     -1.4182263073     -1.6704080291     3.0328842286
C     0.6591286518     -2.7880894524     2.3819679829
C     -0.7361453025     -2.7327730489     2.3119838405
C     2.5109756624     -1.7057387641     1.43378289
C     1.4039095752     -2.5746823959     1.1331610561
C     2.8778701481     0.6738187158     0.9712965639
C     2.8404176397     -0.6938559262     0.4949073337
C     2.5702790023     1.735648083     0.0385491316
C     0.6261002477     2.2767171772     1.4938296067
C     1.4179975873     2.5802934504     0.3047869825
C     -1.4273782121     1.0944236335     2.3251764242
C     -0.7982861759     2.0544563801     1.3955187772
C     -2.441130444     -1.162127795     2.1488897948
C     -2.4898097027     0.227664646     1.8131861806
C     -1.3967040234     -2.874479368     1.0387536884
C     -2.6377898504     -2.1319703128     1.0922157698
C     0.7642049551     -2.578019536     -0.1477920315
C     -0.6631560029     -2.9031832203     -0.1909913435
C     2.470154209     -0.9181664597     -0.890380407
C     1.3880357436     -1.8272792235     -1.2231584803
C     2.9390413565     1.4916306278     -1.3077460514
C     2.8119595233     0.130490736     -1.7798676573
C     2.4571890063     2.3338753747     -2.3773927123
C     0.7610442543     3.1456266139     -0.8130490894
C     1.34856101     3.1277739589     -2.1082905162
C     -1.4251498533     2.3176192542     0.1075104304
C     -0.6566551686     2.8882629045     -0.9578313419
C     -3.1391050911     0.5617073706     0.5733012463
C     -2.5906014052     1.6190034262     -0.287365854
C     -3.3041355614     -1.7766530944     -0.0781162233
C     -3.731889765     -0.4139847397     -0.2382449746
C     -1.4059917584     -2.5838176085     -1.3796486627
C     -2.7530809462     -2.1976976177     -1.3262045513
C     0.6176910034     -1.5483391403     -2.4514318777
C     -0.759343153     -1.8550576673     -2.4744749757
C     2.2471270871     0.2091377358     -3.1119455788
C     2.1745117256     1.5286298532     -3.5726650188
C     1.0150000399     -0.5111427459     -3.3444899115
C     0.2816861133     2.7426278524     -3.0753849821
C     -0.9286310577     2.5834849883     -2.3544425308
C     0.7810177307     1.7317674045     -3.9084424722
C     0.0729150201     0.4601206636     -3.8482465805
C     -2.8026142761     1.2451219225     -1.662245287
C     -3.4764594337     -0.022199899     -1.6290456327
C     -2.9127293019     -1.0974956106     -2.2949628023
C     -1.7095890738     -0.9204915167     -3.0368086202
C     -1.8392048766     1.5247783462     -2.6717686714
C     -1.2856478069     0.3874800111     -3.4283191437


