58

 C     1.05903905     -0.0314667854     4.8007705911
C     0.3606851406     -1.1641818784     4.2471462463
C     1.2316987023     -1.99314025     3.5096869352
C     2.3434076875     -0.0324925091     4.1401048961
C     2.5125334235     -1.2657688993     3.4185587393
C     2.5357840834     1.2111107691     3.4528336971
C     0.3721124002     1.1104872387     4.2594256846
C     1.2527205733     1.9468331605     3.537856632
C     -0.8449135312     -0.7395168958     3.5707094124
C     -0.8284086141     0.7043972859     3.5651999812
C     -1.3345471645     -1.443690548     2.4293575463
C     0.8795643921     -2.4566302481     2.2089453787
C     -0.452427841     -2.3292303428     1.6809133356
C     2.8855798094     -1.2538969976     2.0683634513
C     1.9575573411     -2.1395454641     1.3261108529
C     2.9279540442     1.223291382     2.1095212476
C     3.2365981988     -0.0131221499     1.410377354
C     0.9182979948     2.4378516933     2.2439508378
C     2.0308768728     2.1539632195     1.3931713134
C     -1.2974908849     1.4188319368     2.4098641529
C     -0.4149899303     2.3161377048     1.6731661099
C     -2.3064704875     -0.7351085584     1.6854386699
C     -2.2615536175     0.734657561     1.6584727909
C     -2.7724430515     -1.1924265527     0.4514464472
C     -0.6603122503     -2.4680805973     0.2560463967
C     -1.9708662413     -2.1460555086     -0.2816406464
C     1.7659143753     -2.0492432696     -0.0695631678
C     0.4757797259     -2.3983770489     -0.6632961578
C     3.1118697889     0.0103306975     0.015892188
C     2.5688005143     -1.0927847816     -0.7538824365
C     1.89317489     2.1449922381     -0.0005304319
C     2.6980606064     1.1937928279     -0.6985297062
C     -0.5964685538     2.4738029915     0.2495016988
C     0.6090277478     2.5587237318     -0.5952553028
C     -2.6423320527     1.1423733983     0.3624843344
C     -3.23750367     -0.0169800974     -0.2862527071
C     -1.8299185959     2.0238887798     -0.40652683
C     -3.4254122994     -0.0490687203     -1.6259455953
C     -2.1703813672     -2.205678691     -1.6736203878
C     -3.1703558561     -1.3210979729     -2.3116872685
C     0.2617006855     -2.1616267755     -2.0824162971
C     -1.0743876687     -2.2851965138     -2.5821516999
C     2.1965733747     -0.6330787482     -2.0574500812
C     2.3304208751     0.8191547592     -2.0162945676
C     1.1632313153     -1.2338300155     -2.8012316098
C     0.4732156803     2.4355198691     -1.9775573832
C     1.4256275544     1.6060058537     -2.7112133703
C     -1.9731468257     1.9667642595     -1.8791826951
C     -2.9234350358     1.0309695931     -2.4730151565
C     -0.8207864344     2.2963379274     -2.6608032354
C     -2.8442580462     -1.0673611425     -3.6195374448
C     -1.5142782203     -1.6323634899     -3.8294840832
C     -2.6800927676     0.4133493681     -3.7436435694
C     0.6102985157     -0.4166342081     -3.8804147061
C     0.7274044826     0.9935730759     -3.7705686695
C     -0.5941245569     1.6124191315     -3.9000350885
C     -0.7073934799     -0.6604637444     -4.3870721465
C     -1.4668107812     0.6485789712     -4.3965144792


