58

 C     1.3511613501     -0.3892060007     3.8736508169
C     2.3294553635     -0.6863609724     2.857696585
C     2.0053124522     -2.0273964251     2.3967063512
C     0.4864116475     -1.5036145021     4.0590235717
C     0.8047445024     -2.4719336786     3.0723657314
C     -0.8571630584     -1.035417293     3.8138376664
C     0.5539398419     0.8160403169     3.7840270812
C     -0.8651755336     0.3891190879     3.7633951913
C     0.9604991566     1.7961709674     2.9041029877
C     2.7150726987     0.307567541     1.9048377363
C     2.1186242328     1.6046557594     2.049293861
C     3.0909100524     -0.1188605017     0.5307353807
C     2.1689564421     -2.3592589806     1.0612307957
C     2.8128294293     -1.4711210399     0.1424929409
C     1.0876543799     -3.0050596415     0.3280304421
C     -0.3538822341     -2.6499617101     2.2428834947
C     -1.4138119554     -1.7767710027     2.7164588371
C     -0.2333211854     -2.9506549937     0.8383617175
C     -2.3015412275     -1.1532500297     1.7880252685
C     -1.7577347303     1.012534238     2.8977983454
C     -2.5945781464     0.2302740313     2.0233425855
C     -0.0237600583     2.5761334989     2.1275835938
C     -1.3636584753     2.197252884     2.1384463912
C     1.9360057321     2.4417262212     0.9023471725
C     0.5800196543     2.9971041088     0.9026152881
C     3.0951990827     0.8299316444     -0.5214572993
C     2.5711513553     2.1630677046     -0.3019554914
C     2.7911755549     0.4645851866     -1.9098436871
C     2.3926834939     -1.8189881697     -1.2138046979
C     1.3354211201     -2.7863650343     -1.0696752748
C     2.3552338157     -0.8597188578     -2.2571370308
C     0.2716616117     -2.8081682625     -1.959616739
C     -1.3397324919     -2.6073984459     -0.0679646822
C     -2.3874832652     -1.6753117414     0.4086494021
C     -1.0927430009     -2.7043554165     -1.458411136
C     -3.0832759276     -0.9028996466     -0.5482708309
C     -2.9575632088     1.0736744673     0.9134715295
C     -2.130355301     2.2564292807     0.9183091922
C     -3.3615943096     0.5055924221     -0.2816212622
C     -0.16865422     3.1357471239     -0.3092738315
C     -1.5807908608     2.763328984     -0.3038580932
C     1.9253678473     2.575637195     -1.5000938236
C     2.138992272     1.5640446973     -2.5015517003
C     0.5727466161     2.9723152046     -1.5363730825
C     0.9586388547     1.4440232241     -3.3150435803
C     -0.0359097807     2.3731110365     -2.7354625903
C     1.3232162633     -0.9901555505     -3.2716750748
C     0.3651017127     -2.0025577523     -3.137343729
C     0.5825020821     0.1987399775     -3.7700971104
C     -1.8450508279     -1.9165528713     -2.4342215802
C     -2.8205989694     -1.0160157177     -1.9787674474
C     -0.9612498122     -1.4958974146     -3.4657185039
C     -0.8429245174     -0.1358414196     -3.8483550373
C     -3.1075773007     1.2317332374     -1.4754615124
C     -2.1749427343     2.2822354239     -1.525182401
C     -1.3675102573     2.0451685662     -2.7394214377
C     -2.8514827989     0.2883221515     -2.5544653566
C     -1.8066224391     0.7828269102     -3.3675959435


