58

 C     1.5151394297     0.1219427177     3.9739204417
C     0.7053042073     -1.0891442158     3.8809758934
C     1.2515428446     -1.8937781029     2.8496927402
C     2.5033207499     0.0984278643     2.9263109808
C     2.3969265667     -1.1464717209     2.2711648422
C     2.3579447291     1.2882051016     2.1378923557
C     0.6965718249     1.2226230331     3.8054453074
C     1.1839660461     1.997911254     2.6610752487
C     -0.6734468088     -0.7232763239     3.8675031428
C     -0.69608439     0.760563346     3.8584333626
C     -1.5378558087     -1.4046701489     2.9929244177
C     0.3806816248     -2.5913504987     1.9548309629
C     -1.0282157769     -2.3914008361     2.0796928077
C     0.8916401848     -2.8890811337     0.6458164059
C     2.7060781029     -1.2266229294     0.888037102
C     2.0879995616     -2.3037425845     0.1598855004
C     2.6260873186     1.2687144048     0.764608473
C     3.032513916     -0.0145029144     0.1711211585
C     1.9266994807     2.2409826227     -0.085718997
C     0.2750566652     2.5941013649     1.774387644
C     0.6506332817     2.7816292293     0.3631440456
C     -1.6016414598     1.4174928035     3.078772968
C     -1.1425009641     2.464641539     2.1226008231
C     -2.611252788     -0.6984409289     2.3057437793
C     -2.6933813401     0.6841426341     2.4122259134
C     -1.8658570225     -2.3798123691     0.8841175373
C     -2.8194299463     -1.3223644636     1.001474482
C     0.0104373339     -3.1211551467     -0.4985846424
C     -1.3821015067     -2.7946574917     -0.3950612008
C     2.0264241037     -2.2964197714     -1.2888185512
C     0.7457757924     -2.8556081047     -1.6977537592
C     3.1051620225     -0.0971440361     -1.2535792582
C     2.5911375698     -1.2611160201     -1.9960883029
C     2.1961004756     2.1844823453     -1.4812796141
C     2.8800324623     1.0318393406     -2.0349441102
C     1.196009182     2.5106485295     -2.4279766179
C     -0.401844571     2.9483484259     -0.6383806316
C     -0.1300433515     2.7090291067     -2.0172769743
C     -2.0841488542     2.5314148137     1.1192686772
C     -3.0593919584     1.4426156443     1.2568560853
C     -1.7586838578     2.6994065277     -0.2549176251
C     -3.1787437105     -0.5480756641     -0.1614099689
C     -3.2480515152     0.8884424638     0.0023660162
C     -2.5409274471     1.757047563     -0.983012289
C     -2.0073901246     -2.2307203955     -1.5584588035
C     -2.8022315565     -1.0325936811     -1.4318104603
C     0.1003857839     -2.3431337455     -2.842453238
C     -1.2883070578     -2.1303847505     -2.7813390535
C     1.9751174076     -0.7675482508     -3.2446369003
C     2.239631495     0.6416530583     -3.2966627279
C     1.2081123468     1.5408441135     -3.5340315682
C     0.7140297207     -1.239049561     -3.6143155746
C     -0.9935445462     1.858443993     -2.8443106723
C     -2.1363357612     1.2566604532     -2.2513740407
C     -2.429938319     -0.131357608     -2.5358157241
C     -1.5710820627     -0.8392065302     -3.3903217006
C     -0.1317198505     1.1026701403     -3.7562960841
C     -0.3623098947     -0.2820945358     -3.913660014


