58

 C     1.6542603589     -0.1707940436     4.0649423306
C     0.7009478281     -1.2197304018     3.8799362261
C     1.1351507736     -2.1184660008     2.8634559408
C     2.5424254282     -0.2530317711     2.947945771
C     2.2397173859     -1.4339572484     2.1981220422
C     2.4708008562     0.9681838789     2.2050100418
C     0.9184922806     1.0416731085     3.886420706
C     1.5166160831     1.8469146763     2.8748264927
C     -0.6494426725     -0.6869038285     3.8119179026
C     -0.5086703936     0.7764410887     3.8161139597
C     -1.5504252765     -1.2931485899     2.9381748396
C     0.1892702644     -2.8419634443     2.0890968386
C     -1.194791253     -2.4685913357     2.1748858637
C     0.6714727506     -3.308572671     0.8291066541
C     2.388203739     -1.4914262993     0.7638019275
C     1.7706963334     -2.5842973349     0.1513566229
C     2.6283034521     1.0044418027     0.7709585555
C     2.619199662     -0.251899366     -0.0227860232
C     2.2307920849     2.1984502674     0.1650706832
C     0.7264272374     2.7418477227     2.1051078901
C     1.2894264416     3.1151282601     0.8475259411
C     -1.2770830349     1.5482795646     2.9463224752
C     -0.7034761658     2.6386885702     2.1895305726
C     -2.4057893871     -0.469782437     2.079531962
C     -2.273251455     0.907965037     2.0834825123
C     -1.9872573317     -2.4521857281     0.9612203419
C     -2.6344066603     -1.156207944     0.8382387678
C     -0.2280848101     -3.6470692488     -0.1756375623
C     -1.5606514664     -3.1191407976     -0.1810603062
C     1.5397758157     -2.6006031456     -1.2734622449
C     0.3486105353     -3.3439966188     -1.47363559
C     2.3217744703     -0.2192646834     -1.4256569914
C     1.8037961261     -1.4500541026     -2.0847282862
C     2.0079936924     2.2665738303     -1.259505971
C     2.048283763     1.0914220362     -2.0774407346
C     0.471443437     3.6246058105     -0.1547867193
C     0.980497009     3.2245345444     -1.4548008669
C     -1.4838735164     2.7805500352     0.9762245066
C     -2.3661430741     1.6324263143     0.8462348438
C     -0.9373233002     3.3604288117     -0.1624808168
C     -2.7132566799     -0.477051287     -0.4101117457
C     -2.5723335476     0.987859929     -0.4059113074
C     -1.8158511323     -2.5485973178     -1.4941445343
C     -0.6578221568     -2.8824453345     -2.3389464118
C     -2.3838703934     -1.2502306982     -1.6226491456
C     1.0178909771     -1.352876564     -3.2736834706
C     -0.2638345239     -2.0334504753     -3.3612087054
C     1.258915697     1.1526030406     -3.2664991824
C     0.8214407975     -0.0677967735     -3.9147156147
C     -0.0949925871     2.968230571     -2.3221700812
C     -1.2958889948     2.8564679034     -1.4786459542
C     -2.1009321097     1.6909457754     -1.614215637
C     0.1304826356     2.0655207512     -3.349455201
C     -2.1075533985     -0.5403912484     -2.8530463867
C     -1.2216609145     -1.0537425044     -3.8190254996
C     -0.4938212448     0.0600445041     -4.3730667454
C     -1.964328018     0.9484517526     -2.8487773017
C     -0.9962924072     1.2889896867     -3.8123082045


