58

 C     0.9832503772     0.1073363863     4.7054458394
C     0.3014132561     -1.0422137589     4.2082664787
C     1.2226396295     -1.9404360642     3.617326356
C     2.3381194857     0.037008373     4.129303822
C     2.5160823652     -1.2222347614     3.5065348765
C     2.5804172518     1.2076958035     3.3593526481
C     0.3669642638     1.2162945856     4.0547866506
C     1.3314224205     1.9884252915     3.3627048735
C     -0.8519998022     -0.6412329448     3.3969875058
C     -0.8062720977     0.7911233804     3.2967484088
C     -1.269483339     -1.4063231114     2.2825647292
C     0.9337994778     -2.5477745919     2.3875346914
C     -0.387311472     -2.4755723239     1.8136162133
C     2.93649654     -1.3301609864     2.1593332305
C     2.0526267435     -2.290342314     1.4967955971
C     3.021825236     1.131948961     2.0165164781
C     3.2877076238     -0.1500815434     1.3893685664
C     1.0769123167     2.4567911533     2.0601138692
C     2.2171182797     2.0807946038     1.2460962188
C     -1.1629157648     1.4199157692     2.0759722937
C     -0.2221086803     2.3448765571     1.4550001104
C     -2.1077198771     -0.7459401154     1.3047826784
C     -2.0540058928     0.6977739181     1.1955576858
C     -2.5198690811     -1.4874706156     0.1337196733
C     -0.4984631165     -2.847270052     0.4632172046
C     -1.6411676993     -2.5420452523     -0.3057052654
C     1.9043807067     -2.3557526597     0.0853556163
C     0.6719875304     -2.8489508367     -0.4281894353
C     3.1325424392     -0.2220359898     -0.0246247009
C     2.5801040979     -1.3870951692     -0.7136760257
C     2.0969972369     2.0073654292     -0.139219121
C     2.7424697352     0.9095337994     -0.7989342698
C     -0.3334216137     2.5879187375     0.0425735784
C     0.88934597     2.5410435885     -0.7564450319
C     -2.4920444243     1.3503595392     -0.0234378727
C     -1.6112841892     2.3660426339     -0.6077997972
C     -3.2845399668     -0.8278845992     -0.8437522767
C     -3.3524225884     0.6101806074     -0.8852598909
C     -3.224167717     -1.2727947339     -2.2366153393
C     -1.2446987552     -2.5681473742     -1.7037844976
C     0.2135288289     -2.5388897396     -1.7327254122
C     -1.9846850814     -1.9346374111     -2.6611105883
C     2.0506117096     -0.9966985658     -1.9863280315
C     2.2471734536     0.4430037412     -2.0724578119
C     0.8676314889     -1.5601763088     -2.5552262102
C     0.7672565529     2.3767919271     -2.153130408
C     1.3891013544     1.2121027177     -2.8022273038
C     -1.6925288985     2.5841276976     -2.0274611936
C     -0.4743414265     2.5410355332     -2.7646062101
C     -3.5358898085     0.9782744149     -2.2837660101
C     -3.4978726486     -0.2307574124     -3.0996488207
C     -2.6683794609     1.9068569998     -2.8350135219
C     -1.3524371698     -1.0986928007     -3.6871891438
C     0.0478443724     -0.7661161469     -3.5201056484
C     0.4093371668     0.6157750421     -3.7148002255
C     -0.6167086767     1.5939654967     -3.885553673
C     -2.3316940988     -0.0914102164     -3.9971715343
C     -1.958674564     1.2647757118     -3.9996106425


