58

 C     1.4890720783     -0.0323378058     3.9609120526
C     0.7337676631     -1.202657233     3.7883824153
C     1.3514899822     -2.0833142405     2.8275818934
C     2.5046815547     -0.044204228     2.9562463869
C     2.4126040531     -1.2999578919     2.2277749546
C     2.3942563342     1.1200658122     2.1710550822
C     0.6024373923     1.064686109     3.6138538719
C     1.218689534     1.8801530071     2.6462137395
C     -0.6718018122     -0.8537337347     3.6033778155
C     -0.7311170155     0.6148562612     3.3761271104
C     -1.4660481487     -1.6966636967     2.8865014993
C     0.5360218661     -2.9608993642     2.0443553128
C     -0.9083992448     -2.8869246624     2.2233428298
C     1.0174801704     -3.2929886942     0.7578646464
C     2.6761323508     -1.3788264129     0.8211429138
C     2.1362400293     -2.5321151127     0.180599589
C     2.7127477472     1.1201126049     0.7692469745
C     2.8641812094     -0.1456496663     0.0369771586
C     2.2953727249     2.2590753544     0.0823531677
C     0.4373735748     2.6015662788     1.7323282607
C     1.1959311038     3.0974996994     0.6211995807
C     -1.5087881402     1.1630625189     2.3151275628
C     -0.9696763277     2.2963296878     1.5494848065
C     -2.5097036829     -1.1294015857     2.0211786908
C     -2.4985790262     0.2735645575     1.6787991078
C     -1.7544687986     -3.1442256437     1.1353556037
C     -2.7744604377     -2.0946297218     1.0422792811
C     0.1056660454     -3.600839184     -0.3378149199
C     -1.2857428333     -3.4149645173     -0.1760662175
C     1.967625001     -2.5135850604     -1.2166365319
C     0.6873169222     -3.1509341345     -1.5420422959
C     2.5827174214     -0.12690006     -1.3853469473
C     2.1150479746     -1.3507578253     -1.9718886537
C     2.2400289321     2.3465311496     -1.36028905
C     2.2425729716     1.1251400891     -2.0992670118
C     0.5837884393     3.7173995629     -0.4350456245
C     1.3170244128     3.3991320048     -1.6700457179
C     -1.573943985     2.6809745735     0.2682666795
C     -0.8316077338     3.5184322014     -0.6712131341
C     -2.9570827973     0.5954264116     0.3810649453
C     -2.5387999952     1.804623126     -0.301107336
C     -2.9463836882     -1.7588431204     -0.3219019273
C     -2.0101798104     -2.5548878683     -1.1175413858
C     -3.1476281436     -0.420664964     -0.6268176682
C     0.0076575125     -2.3464469867     -2.4641415715
C     0.9717255967     -1.3366487856     -2.9066730438
C     -1.3745584283     -1.9690799103     -2.2446968661
C     1.3244642427     1.0628184463     -3.2279055433
C     0.5555389063     -0.1704983347     -3.4462859501
C     0.3766538529     3.2606006859     -2.6746959567
C     -0.9832758075     3.3636951591     -2.0736359837
C     0.4183457639     2.1100422808     -3.4847133651
C     -2.554623433     1.5410926474     -1.7222262952
C     -2.7001874987     0.1166482577     -1.8904565812
C     -1.7987434848     -0.6298378676     -2.7051905189
C     -0.880788376     0.1542602066     -3.5015878407
C     -1.7480638438     2.2887457186     -2.6018983835
C     -0.9500008807     1.546883921     -3.5418615817


