58

 C     1.4075372669     0.1636502702     3.866125874
C     2.5709306391     0.0078096583     3.1127240287
C     2.4776090654     -1.3006438382     2.4657944328
C     0.543343332     -1.0551460362     3.6792919947
C     1.2002974192     -1.9008183522     2.7611919824
C     -0.7690503984     -0.6059474168     3.4233593822
C     0.6048317956     1.3005438261     3.7737989585
C     -0.7626426227     0.8298614148     3.5552867542
C     0.8872818204     2.2830646066     2.7762114887
C     2.8898031993     0.9663824266     2.1028892422
C     2.0833450669     2.1704849408     1.9516739502
C     2.8946010903     -1.1771451455     1.1412462168
C     3.2480034474     0.2173547683     0.9106979459
C     2.2821185847     -1.9768431035     0.1141876683
C     0.4570395343     -2.5719231215     1.7357347434
C     1.1124662485     -2.7941692326     0.4558451025
C     -1.5676975237     -1.2406335061     2.4165259238
C     -1.0008849926     -2.4228873529     1.7612361152
C     -2.5065771481     -0.4146040113     1.6727014903
C     -1.3566047796     1.6180746603     2.5706585428
C     -0.3742572611     2.5990349292     2.1286358122
C     -2.3038450913     1.0384841494     1.6561585233
C     -0.4288629114     3.1239777349     0.8182274747
C     2.0284206109     2.7483727747     0.6582626396
C     0.8177987514     3.3812833171     0.1510308328
C     3.1405357791     0.777054954     -0.3819364355
C     2.7024099078     2.1421284593     -0.4826448147
C     2.4095888944     -1.4887501687     -1.2075408918
C     2.8116696431     -0.1179864583     -1.4631971499
C     1.492513947     -1.8851890695     -2.2588252795
C     0.3134386887     -3.284988771     -0.6276487664
C     0.4925468603     -2.7991747018     -2.0074068313
C     -1.733664436     -2.9893329948     0.6895677865
C     -1.0487804523     -3.5320150111     -0.4413620287
C     -3.1606602617     -1.0007263171     0.5404719367
C     -2.8890614225     -2.322007661     0.1774086173
C     -3.4003563561     -0.2395433821     -0.6984689189
C     -2.5011595712     1.7401268442     0.4436343076
C     -1.5642560041     2.7592374135     0.008150953
C     -3.0261868166     1.0859115339     -0.7394711475
C     -1.4768956388     2.6949864273     -1.431111416
C     -2.3435195296     1.6292854834     -1.8978445884
C     0.8638951747     3.3266460546     -1.2619860139
C     2.027478931     2.5615755167     -1.6532260221
C     -0.2375108231     2.915457069     -2.0550600674
C     2.1049984149     0.3398478103     -2.6354760786
C     1.2499957245     -0.7334944394     -3.1061170882
C     1.656488167     1.6701299786     -2.6918921768
C     0.2501823208     1.9310377134     -3.0320817335
C     -1.9376022361     0.7672592866     -2.9190319022
C     -0.0473221777     -0.4756227665     -3.5546137047
C     -0.5678117129     0.8865006187     -3.4222779209
C     -0.8246036416     -2.6255933392     -2.6094889139
C     -1.770318636     -3.1463237337     -1.670553784
C     -2.8834826108     -2.4144047228     -1.2962668676
C     -3.127163923     -1.1116318904     -1.8352829589
C     -1.1168405202     -1.4108597661     -3.266785344
C     -2.2935508565     -0.6371583305     -2.8711318661


