58

 C     1.1874087044     -0.0125115777     4.0832660007
C     2.313528694     -0.2233314403     3.3300545244
C     2.2232238176     -1.5437096821     2.6815071122
C     0.3274533661     -1.2315412851     3.8872441463
C     0.9342768263     -2.0954152185     2.9023139374
C     -0.9422810446     -0.78058821     3.6856560165
C     0.3707774092     1.1620361876     3.857301389
C     -0.97436868     0.7043133341     3.7695624315
C     0.8181311013     2.1291491552     2.8976981427
C     2.7560464286     0.7045202113     2.3097779553
C     2.0337661676     1.871064055     2.1196202647
C     2.7852612476     -1.4690318068     1.3994078351
C     3.1288576578     -0.0845867371     1.1329934641
C     2.2855319461     -2.3086087991     0.3697308441
C     0.1890418351     -2.5617010421     1.7540625201
C     0.9562161687     -2.9021858369     0.5586333522
C     -1.7159062265     -1.1870103986     2.5453879131
C     -1.199732881     -2.1195639317     1.5900198282
C     -1.8422838404     1.1491139667     2.7756625069
C     -2.4245201823     -0.0271809738     2.0979112283
C     -0.1146103107     2.7053582057     1.9887177248
C     -1.478739578     2.2743339881     1.9505745262
C     1.8352391654     2.3817426641     0.759533181
C     0.5619590906     2.9977628436     0.7028206633
C     3.0369388086     0.4281228084     -0.1838473358
C     2.3761341774     1.7238256557     -0.3879133976
C     2.7014033839     -1.9311717462     -0.9386178551
C     2.9867344365     -0.5501252368     -1.220538826
C     2.0304296261     -2.4548040333     -2.0814920396
C     0.2233766047     -3.2199477663     -0.617820981
C     0.8299533447     -3.1537254238     -1.9288892943
C     -1.8208051029     -2.1022119174     0.2666336687
C     -1.1427517421     -2.7942151619     -0.7682019238
C     -2.9753189941     0.0711981427     0.8080540498
C     -2.7768516397     -1.0537378282     -0.1084446675
C     -2.1873171789     2.4115868945     0.7376753874
C     -3.1282299984     1.4168927748     0.2960086942
C     -0.1489769562     3.1302570493     -0.5164867875
C     -1.5921157306     3.0420060315     -0.4578182167
C     1.7210303518     1.9507732741     -1.6322502368
C     0.487723554     2.6751988244     -1.7126538586
C     2.4129577424     -0.2455922675     -2.5441143647
C     1.8725723008     -1.4352288745     -3.0984000949
C     1.7346121515     0.9616759812     -2.6979489719
C     -0.1101087427     -2.6329266245     -2.8846763233
C     -1.3184631034     -2.4408843614     -2.1850082537
C     0.5096298255     -1.4756732979     -3.528794542
C     -2.9698237208     -0.7903576435     -1.5079269099
C     -2.1567724022     -1.3788511138     -2.5092096478
C     -3.2989968435     1.6217292648     -1.0954608816
C     -2.3134081864     2.6160939804     -1.5660836186
C     -3.2375386976     0.5605495944     -1.9618196671
C     -0.2830350536     2.1170206873     -2.8219365501
C     0.4394758227     0.9834772894     -3.3517053427
C     -0.2260093862     -0.2526759922     -3.6894568781
C     -1.6458687062     -0.2927105872     -3.3960672639
C     -1.6840314971     2.0928251101     -2.7612975451
C     -2.3608253209     0.8691788315     -3.1029470424


