58

 C     1.1523943418     -0.068942885     3.9230856853
C     2.2983338157     -0.4005486761     3.2280661417
C     2.2352735938     -1.7830117221     2.7882237389
C     0.2888599261     -1.2973151265     3.8741451325
C     0.9160541605     -2.2907761513     3.0423247347
C     -0.9769495616     -0.886549126     3.5846708805
C     0.3647912048     1.0619601178     3.5358928397
C     -0.9904121351     0.595106359     3.5066867946
C     0.8126157509     1.9776349968     2.5037958068
C     2.7514013692     0.4196413363     2.1284461845
C     2.0930299123     1.6652728767     1.8585901391
C     2.8006864014     -1.8182099075     1.4883835405
C     3.109485372     -0.4491543564     1.0504152201
C     2.2620011038     -2.6812414353     0.568713063
C     0.1797386657     -2.9027990639     1.9708254075
C     0.9908729332     -3.3440503646     0.868542342
C     -1.7135848749     -1.3937037597     2.4575988829
C     -1.1735545717     -2.4107863426     1.6203843183
C     -1.8507397557     0.9576384181     2.496173076
C     -2.3936242156     -0.2735910176     1.8759053341
C     -0.2123861668     2.6635112497     1.7174796959
C     -1.5693391579     2.1196111805     1.7003519248
C     0.1809295822     3.3571892787     0.520971249
C     2.3238656343     2.1552340625     0.5479016556
C     1.4633570868     3.1323294246     0.0068227749
C     2.9402491468     -0.0740414835     -0.3299178031
C     2.7005860874     1.2888573592     -0.5462870623
C     2.30494628     -2.3970920355     -0.8765945601
C     2.4901201518     -1.0610342522     -1.3376096182
C     0.4111184428     -3.6452278644     -0.3593043252
C     1.3138304296     -3.2296726315     -1.4503614732
C     -1.6605070392     -2.4487788046     0.2218350567
C     -0.9202683518     -3.253691517     -0.7134007239
C     -2.8273160892     -0.2547928647     0.5537237848
C     -2.4870701249     -1.3655624818     -0.3257992504
C     -2.3732697312     2.2431183251     0.558747553
C     -3.0793203102     1.0678995917     0.0190880315
C     -0.7113469686     3.5412205536     -0.6388838878
C     -2.02010332     3.0796248257     -0.576184549
C     1.3843114834     2.9803746143     -1.4412308843
C     2.0253320866     1.7723006365     -1.761938524
C     0.0740135485     3.2930457759     -1.8701976454
C     1.6934591006     -0.5933471134     -2.5009765539
C     1.4295789604     0.8483901628     -2.6809211971
C     0.5368484512     -2.7842965837     -2.4900113881
C     -0.876014082     -2.9018115172     -2.0980589345
C     0.7363364579     -1.4964124431     -3.0636102356
C     -2.4901025024     -1.0835157385     -1.7717396329
C     -1.5417880932     -1.7904385336     -2.5969065891
C     -0.586343078     -1.0162422154     -3.4124914349
C     -3.2546672749     1.2581596336     -1.3437235587
C     -2.6438274303     2.513038754     -1.7465908802
C     -2.8666386716     0.2071497563     -2.2661033028
C     -0.4611704194     2.513749737     -2.906237675
C     0.2194791417     1.2954043713     -3.3162371905
C     -0.8234498003     0.3165862821     -3.6313031809
C     -1.8803510175     2.2216635372     -2.8766900861
C     -2.0997558792     0.8509248081     -3.2884788316


