58

 C     1.2671349621     -0.0650101405     4.1068812051
C     2.4856244682     -0.3333328173     3.5117885588
C     2.3766773847     -1.6273335301     2.7647125231
C     0.4076555247     -1.2654692531     3.8658271412
C     1.0564513814     -2.1166426254     2.8891251508
C     -0.8644895136     -0.845108792     3.6404829603
C     0.5026214421     1.0930259903     3.7258755821
C     -0.857255843     0.6327096785     3.6224929751
C     0.9978690713     1.9939188431     2.6981714049
C     3.0848271572     0.604249404     2.6574441196
C     2.3373012043     1.7649091491     2.2303835053
C     2.9928268666     -1.4495730998     1.5038142723
C     3.5007824025     -0.100369817     1.4658939318
C     2.3945137662     -1.9951069031     0.3408384357
C     0.33795792     -2.539936474     1.7102425172
C     1.119173467     -2.6847591574     0.499660241
C     -1.639388381     -1.2942454522     2.516655597
C     -1.0871641675     -2.1826283227     1.5551105867
C     -1.7421406064     1.0440688437     2.646644575
C     -2.3658437794     -0.1484643336     2.0467933706
C     0.0093007407     2.5791156617     1.7449787867
C     -1.4136270897     2.1580131807     1.7929560373
C     0.45932371     3.0132738605     0.4801027751
C     2.6209067341     1.9137499443     0.8129516759
C     3.2593610889     0.7016739139     0.3286143594
C     1.7410613533     2.5671792229     -0.01503952
C     2.6493608715     -1.3205762306     -0.9416207307
C     2.8898292546     0.12190155     -0.9141809688
C     2.0406223484     -1.8659201851     -2.0904896776
C     0.4129278529     -3.02952948     -0.6895847407
C     1.0139877578     -2.8543032747     -1.9426491828
C     -1.7313379613     -2.2018410024     0.2326565056
C     -1.0342723812     -2.8372695339     -0.8114601844
C     -2.974357139     -0.0957302724     0.789759022
C     -2.786465166     -1.2304386375     -0.1242075532
C     -2.2487670391     2.3081368159     0.6867544857
C     -3.1808462056     1.2294476191     0.2754202805
C     -0.4107910901     3.1285811976     -0.6788077844
C     -1.7941301955     2.9348515699     -0.5420782799
C     1.5816750715     2.1649488376     -1.3881096487
C     2.1656768624     0.9717200339     -1.8696528931
C     0.2590276561     2.5970810571     -1.8300774068
C     1.6279690148     -1.0206486828     -3.181957764
C     1.5244316425     0.3578120339     -3.0030258704
C     -0.0450764671     -2.5524620336     -2.9022530936
C     -1.3141489524     -2.5502950078     -2.2037614117
C     0.3400036353     -1.4937362367     -3.7061685211
C     -3.0897411489     -1.0116306438     -1.5016849713
C     -2.2560199104     -1.5960095531     -2.5442732441
C     -3.4498092507     1.3885106622     -1.0867004198
C     -2.527992396     2.4066858326     -1.6245448023
C     -3.4598221106     0.2969269806     -1.9567380097
C     -0.4552318771     1.9117165212     -2.8738471201
C     0.2012960097     0.8050874134     -3.4829009832
C     -0.5350094563     -0.375851452     -3.8873737364
C     -1.8915920783     -0.5108135799     -3.4892015678
C     -1.9087174888     1.8738404526     -2.7814673138
C     -2.5941409185     0.6319002442     -3.0791751517


