58

 C     1.4670565491     -0.2742078985     4.3542917986
C     0.6283891042     -1.4559006045     4.2885796056
C     1.1222965103     -2.2243074388     3.2161550134
C     2.472984287     -0.3724656426     3.31302278
C     2.302988199     -1.6043241866     2.6220647715
C     2.5591860494     0.84067226     2.5294227639
C     0.6966837555     0.8209548237     3.9295376103
C     1.4078434621     1.6244263164     2.9308398922
C     -0.6660916925     -1.0141545617     3.7977148733
C     -0.6675515271     0.4064538125     3.6230158809
C     0.0522700353     -2.577029639     2.2815628912
C     -1.0982208314     -1.7922962234     2.6692954185
C     0.3368493108     -2.8549575803     0.9439141021
C     2.5430453746     -1.7090586053     1.2219883348
C     1.7159831306     -2.6475342992     0.4585019616
C     2.9125370971     0.764759319     1.165822135
C     3.0796626939     -0.5466273055     0.5218988632
C     2.4354210633     1.8321078764     0.3382247786
C     0.6799694455     2.3620857704     2.0041842139
C     1.3591088373     2.6512634794     0.7671631238
C     -1.3779726823     1.0084830151     2.559874967
C     -0.8013958146     2.2084639976     1.9356755931
C     -1.9238384942     -1.238258363     1.6778278217
C     -2.241640424     0.183432894     1.7213584482
C     -0.7861993354     -2.7484287376     0.0070618569
C     -1.931774125     -1.9274368047     0.3896964905
C     -0.5117535126     -2.9494107819     -1.3805275815
C     1.9204485294     -2.7199816542     -0.9278801978
C     0.8268099345     -3.0006547457     -1.81555359
C     3.115853466     -0.5827680041     -0.9039243802
C     2.7198662572     -1.7310080401     -1.5872050556
C     2.3302505311     1.7285237446     -1.1106761782
C     2.6860629054     0.5632725078     -1.7364779299
C     0.6393878205     3.1013586304     -0.3921601328
C     1.1985246253     2.4854029552     -1.5794491654
C     -1.4623878336     2.7556296911     0.8502082168
C     -0.7272660666     3.3494915673     -0.2907721094
C     -2.9369646656     0.7821964851     0.6079919013
C     -2.6693871591     2.1600385359     0.2927835094
C     -2.7486336977     -1.3785322517     -0.6191647389
C     -3.3539510591     -0.0804467852     -0.4754141495
C     -1.2807812875     -2.2477666847     -2.3977489234
C     -2.4471304782     -1.5959739368     -2.0461003356
C     0.9320894708     -2.1563272075     -3.0010164412
C     2.0369371726     -1.3365716794     -2.8325798591
C     1.9053399045     0.0778746754     -2.8612797161
C     -0.3414905693     -1.5938565794     -3.2976681503
C     0.3613776119     2.0111591218     -2.634242885
C     0.650711063     0.699327328     -3.2249101411
C     -0.4815497466     -0.1855804135     -3.569881952
C     -1.5102302806     3.2088268022     -1.4384692802
C     -2.7679879392     2.6125636053     -1.0599056709
C     -1.0111954544     2.5023456313     -2.6217227104
C     -3.4924570996     0.4497922647     -1.8066400897
C     -2.8162394399     -0.4400569427     -2.7512994978
C     -1.8233272613     0.3293803109     -3.4426774179
C     -3.1606372615     1.7615891299     -2.108391088
C     -2.0578784282     1.7040470564     -3.1059402594


