58

 C     1.5100547984     0.0276432313     3.9402958422
C     0.6877899699     -1.1766640477     3.8676183455
C     1.2251949399     -2.0019965358     2.8794105336
C     2.491887839     -0.0144920703     2.8854174177
C     2.3842603429     -1.2621239489     2.2633228392
C     2.2986530871     1.1454101777     2.056712905
C     0.7091829973     1.1410227755     3.786270227
C     1.190551611     1.9099136708     2.6333541043
C     -0.7010923372     -0.7655218578     3.8139864878
C     -0.6889439186     0.7226918162     3.8523804289
C     -1.5608019643     -1.394798306     2.9143661677
C     0.3501275009     -2.7115921352     1.9858823652
C     -1.0506351916     -2.4056519416     2.0037218117
C     0.886651718     -3.1442761567     0.7645757891
C     2.6748715692     -1.3933443304     0.8810063252
C     2.1815391204     -2.611499945     0.2684499932
C     2.4607086452     1.0773676526     0.6618314595
C     2.8268766723     -0.2196681894     0.0564913424
C     1.7595702131     2.0781103554     -0.1361877645
C     0.2807547641     2.5933623825     1.8164538144
C     0.6124368766     2.7953957295     0.3991783937
C     -1.5918878798     1.4335119298     3.1210826844
C     -1.1269749701     2.5296529618     2.2231083431
C     -2.5808255051     -0.6381811637     2.2045425098
C     -2.6858463959     0.7448997166     2.4148986785
C     -1.760324054     -2.2873475113     0.7590378774
C     -2.6739874194     -1.1586421665     0.8609903441
C     0.0721849973     -3.3540931144     -0.3925782656
C     -1.2067528652     -2.6984379251     -0.4824500335
C     2.2512024591     -2.7995695957     -1.0903616332
C     0.9586975052     -3.3557034509     -1.5171621041
C     2.792398646     -0.3848751945     -1.4091264442
C     2.5673481494     -1.7008414412     -1.9775919599
C     1.9136895878     1.9770021676     -1.5535276295
C     2.3908541757     0.7220999699     -2.1884252811
C     1.0189315394     2.6010721945     -2.4158228338
C     -0.4495667488     3.1945641392     -0.5333307209
C     -0.2355719542     3.085159704     -1.9309871463
C     -2.0949375814     2.6780712462     1.2530597933
C     -3.050349342     1.5477826695     1.3274383413
C     -1.8079268745     2.9662044703     -0.1039859435
C     -2.933026576     -0.3352223021     -0.2709844784
C     -3.189037552     1.0555107509     0.0203663478
C     -2.6298030351     2.0728256923     -0.869942471
C     -1.5453641808     -1.9350909562     -1.7080913182
C     -2.3638155919     -0.7143912029     -1.5845536657
C     0.6014036918     -2.7292628044     -2.6759928688
C     1.6920766804     -1.823290573     -3.0962555778
C     -0.6471119494     -2.0246164563     -2.8172459193
C     1.6590497483     0.5651782585     -3.4325570551
C     0.8021463428     1.6943858502     -3.5592561028
C     1.1159855832     -0.7125885661     -3.7141017929
C     -0.362154522     -0.8772598396     -3.6574145732
C     -1.2247152908     2.4452274903     -2.7700474348
C     -2.2686936723     1.7235217199     -2.1636307898
C     -2.1949303472     0.3077042441     -2.5595954615
C     -0.5672456437     1.5568502182     -3.7172561333
C     -1.1747584282     0.2389005433     -3.5867881103


