58

 C     1.511812122     0.0912159445     4.1971045217
C     0.7296945734     -1.0843119961     3.9765741412
C     1.4908166273     -2.0396603634     3.2410750506
C     2.6407627299     -0.0222828084     3.2696754007
C     2.6473040888     -1.3037913236     2.6973597106
C     2.6329768348     1.0658397005     2.3500935841
C     0.7358393496     1.1429079784     3.6426848363
C     1.475135136     1.895224167     2.6801828112
C     -0.5912195701     -0.734312078     3.4589224938
C     -0.5813096812     0.7022315526     3.238232357
C     -1.2619548007     -1.5890927493     2.5632677985
C     0.8977678801     -2.7654196188     2.2198373379
C     -0.5218422767     -2.7479992935     2.0519459414
C     2.6735535253     -1.5300038689     1.2814148852
C     1.6901072327     -2.5359489119     0.9934416805
C     2.9418986055     0.8726168551     0.9555582031
C     2.8497718917     -0.4647133714     0.3481423903
C     2.6281879871     1.9682751941     0.152445122
C     0.8141619401     2.6302728582     1.6904327628
C     1.6622886781     2.9781612968     0.5906254567
C     -1.2372755183     1.2885845795     2.1241237711
C     -0.5996108284     2.4077559793     1.41529384
C     -2.2816904537     -0.9909917389     1.6880280269
C     -2.2246414401     0.4622455153     1.4376079167
C     -2.8803184798     -1.8280584078     0.7127869561
C     -0.9705627533     -3.3561649919     0.8702542104
C     -2.2663427896     -3.101123429     0.3952078587
C     1.1408433397     -2.6851828026     -0.2912396888
C     -0.1046627593     -3.4111869496     -0.3295995734
C     2.3260249955     -0.59476081     -1.0143095059
C     1.4711607779     -1.7296245005     -1.3361680426
C     2.5742950459     1.8836869945     -1.2905461172
C     2.3072882499     0.5927603601     -1.8849077923
C     1.1599437711     3.5822988441     -0.5426531307
C     1.8685713709     3.0412540789     -1.7243315405
C     -1.1073760822     2.8329436915     0.1184390219
C     -0.2382117298     3.5463122229     -0.8272768044
C     -2.7293043719     0.9489548171     0.2081062316
C     -2.1771326719     2.0929253058     -0.4461755313
C     -3.3186745101     -1.2972458403     -0.572206024
C     -3.1987345742     0.042274935     -0.8227834254
C     -2.3134340481     -3.3524976574     -1.0274690437
C     -0.9261277212     -3.4233611602     -1.4734258963
C     -2.8600424425     -2.2240823556     -1.6201667072
C     0.522532106     -1.6356299586     -2.4612440112
C     -0.7033456281     -2.4031220859     -2.4398714379
C     -1.981368676     -1.7159713142     -2.6521897762
C     1.4598098326     0.6019272747     -3.0487736044
C     0.4823722892     -0.4566925204     -3.2150306103
C     0.9611901432     2.9898692299     -2.7669319081
C     -0.3804234895     3.3724491618     -2.2465530265
C     0.8402821678     1.8052479664     -3.5082488556
C     -2.2614839564     1.856037841     -1.9018873701
C     -2.7440888645     0.5533410339     -2.1211202296
C     -2.0018259375     -0.3551708968     -2.9847876034
C     -0.8013682497     0.1616389296     -3.5798009494
C     -1.2890413059     2.4357155175     -2.7726701988
C     -0.5829776916     1.5334339769     -3.6664959236


