58

 C     1.5349175581     -0.0766325615     4.0893901269
C     0.7634801528     -1.1398591505     3.6234065145
C     1.4436613897     -1.7658028367     2.5197005601
C     2.6663407003     0.0765118432     3.1504636441
C     2.5488602889     -0.9142483501     2.1159689463
C     2.7426321172     1.4062005602     2.7720540306
C     0.7472921917     1.1169466906     3.9822588587
C     1.5239821188     2.0951360261     3.3408810979
C     -0.5770673398     -0.6632171721     3.295440865
C     -0.5546669929     0.7703598339     3.3922776313
C     -1.318738513     -1.3219919202     2.3142970257
C     0.7184974467     -2.5061400266     1.5921983322
C     -0.7343939893     -2.5341154831     1.7282298461
C     1.2744715567     -2.6325745568     0.2631949811
C     2.6451293571     -0.5772562727     0.7230617111
C     2.0737261819     -1.5247635795     -0.2350193645
C     2.8349709119     1.7841527565     1.4161898591
C     2.8151435212     0.8213956997     0.3435829596
C     0.9879286521     2.9062403978     2.3524675978
C     1.9880779282     2.9640285545     1.2714861475
C     -1.1232133914     1.5508272449     2.3420079502
C     -0.4068886823     2.7695588974     1.9385549463
C     -2.1919376365     -0.5409627291     1.4560698464
C     -1.9916793371     0.8866482414     1.3576774287
C     -2.8536007619     -1.245072519     0.3893815897
C     -1.4718006371     -3.2129348024     0.7567116257
C     -2.6588833497     -2.615793678     0.2058761933
C     0.5484859455     -3.4669795887     -0.640695341
C     -0.7925808325     -3.8482500917     -0.3242131707
C     0.6378187345     -3.2478107106     -2.0404022184
C     1.8693863529     -1.1228267513     -1.6199180617
C     1.1904921693     -2.045010837     -2.51670314
C     2.3548241879     1.2771485067     -0.9803903813
C     1.8459713729     0.2964303028     -1.9382184599
C     1.6625890404     3.4462092816     0.0515048304
C     1.9696865099     2.6489419778     -1.1459002378
C     -0.7363988269     3.3653136863     0.7118372365
C     0.3132111085     3.9594761709     -0.1097968083
C     -2.2685959973     1.520449953     0.0609129794
C     -1.7142956252     2.7883890357     -0.2017565411
C     -3.0359809761     -0.63344648     -0.9291805234
C     -2.6173116781     0.6799552432     -1.1178349676
C     -2.692753008     -2.9130826341     -1.2402591336
C     -1.607226107     -3.750764521     -1.5395093582
C     -0.727742894     -3.4310461028     -2.6133346817
C     -2.8845751345     -1.680664085     -1.9457452363
C     0.2489740516     -1.5441505832     -3.5124150328
C     -0.9936094934     -2.3376325359     -3.4130064118
C     -2.0648621668     -1.4178187484     -3.0786859308
C     0.8387717805     0.7358298356     -2.9036529847
C     -1.9457848234     0.966926936     -2.3964835716
C     -0.0687531119     -0.216175749     -3.474014502
C     -1.5353790057     -0.0986293565     -3.2105809339
C     0.9698765706     3.0231360163     -2.1027880398
C     -0.0362739955     3.8362701755     -1.4458228834
C     -1.3028660383     3.1634274121     -1.5617831813
C     0.3026070401     2.0288894415     -2.8263334543
C     -1.1539465729     2.1408536925     -2.4926408001


