58

 C     1.4750262101     0.2075071003     4.2764529061
C     0.6842236029     -0.9575491582     4.1108362826
C     1.4418372136     -1.9182646669     3.3892270311
C     2.6129619968     0.0720449347     3.345040864
C     2.6316851253     -1.2256057616     2.8403673794
C     2.6234412859     1.1607528459     2.4096378922
C     0.7217003215     1.2829576524     3.7450729544
C     1.510743219     2.0268473193     2.8007142745
C     -0.6208254398     -0.5654525975     3.5322558554
C     -0.5988516618     0.8582856208     3.3259648096
C     -1.2853659034     -1.3878956589     2.6094069427
C     0.8462264415     -2.6470543553     2.3703312505
C     -0.5801580714     -2.5938347589     2.1748973623
C     2.6479957905     -1.4682596241     1.43510359
C     1.6480685543     -2.4772798033     1.1598308064
C     2.8259790468     0.9493262936     1.0084764681
C     2.7914229804     -0.4209353854     0.4829605187
C     2.4200513035     2.0305436659     0.1176760455
C     0.8504543467     2.7666830166     1.8542407315
C     1.4709856094     2.9954468286     0.5758694878
C     -1.2246914323     1.4571282997     2.1788269905
C     -0.5613181751     2.5838419148     1.6090393164
C     -2.2145505351     -0.7646003601     1.6306913307
C     -2.0830395037     0.6580269174     1.3127147011
C     -2.8072866757     -1.6252276324     0.6830593368
C     -1.0221078342     -3.251793393     1.0286154203
C     -2.3065788515     -2.9787039681     0.5140048648
C     1.1144762438     -2.7205860755     -0.1273084822
C     -0.1161572972     -3.4473950792     -0.1295046291
C     2.3119620057     -0.6749975456     -0.8941948429
C     1.4562831661     -1.8280811141     -1.221076062
C     2.4534136864     1.779649638     -1.2905776768
C     2.3280739604     0.4009054323     -1.7885206456
C     1.7629041077     2.6063243675     -2.1817376614
C     0.445736683     3.4498128775     -0.3159481753
C     -0.8126770624     3.004744335     0.2628633168
C     0.6558611596     3.3953359334     -1.696779815
C     -2.4127123873     1.1406089354     -0.0379022897
C     -1.7945779284     2.3677264254     -0.5419415302
C     -3.1619830796     -1.150733487     -0.6353670555
C     -2.937520354     0.1795024913     -1.0152680246
C     -2.3269745709     -3.3143235719     -0.8720676273
C     -0.9118252922     -3.4659952453     -1.2827005224
C     -2.8244345728     -2.2348666186     -1.5753909645
C     0.5635054441     -1.7670693962     -2.3727674611
C     -0.6235050723     -2.5826295412     -2.3507122178
C     -1.9186108509     -1.9396724622     -2.6738789096
C     1.5456804923     0.4270114321     -3.0143722404
C     1.2875246814     1.8041705092     -3.308920834
C     0.5473054119     -0.5743147902     -3.2364486076
C     -0.4611573561     3.1223590082     -2.5232954153
C     -1.6589899386     2.5929172649     -1.9810651036
C     -0.0089325413     2.2237691804     -3.6329994929
C     -2.648708919     0.3909527468     -2.4390341997
C     -1.9327152508     -0.6863093831     -3.1687900488
C     -0.7263301146     -0.1062340453     -3.7427846226
C     -2.0989366974     1.5640618817     -2.8840414488
C     -0.9940067111     1.2764206098     -3.8487821233


