58

 C     1.33415216     0.006425732     4.1740583458
C     0.5386597674     -1.1776940803     4.1414815417
C     1.213154557     -2.1746242077     3.3704380659
C     2.3812386815     -0.1634749799     3.1481049909
C     2.2908138778     -1.4529848169     2.6023560783
C     2.3779206991     0.9618389534     2.2829030123
C     0.5484496604     1.0616848977     3.728944918
C     1.2501788084     1.7882238398     2.6981056751
C     -0.8321197279     -0.8285639677     3.810661465
C     -0.8197239879     0.5777981157     3.4519313978
C     -1.5520524104     -1.7327138263     3.0154822295
C     0.4424496247     -3.1419410236     2.728566473
C     -0.9917977672     -2.9942229384     2.6887581429
C     0.8701842492     -3.5880528638     1.4218393053
C     2.4238432502     -1.6403955805     1.1664636656
C     1.7569951254     -2.8084504423     0.6440401618
C     2.6328240471     0.8181410235     0.8865056653
C     2.6429352014     -0.4989127271     0.2848661787
C     2.2381335791     1.9359974324     0.1033489577
C     0.5288819679     2.5164095272     1.7598371495
C     1.236470041     2.8386433591     0.5681744348
C     -1.4774751431     1.0625712283     2.3101809347
C     -0.9201079718     2.2543544939     1.6338214068
C     -2.2742097857     -1.2327131014     1.834012807
C     -2.2701255727     0.1259184425     1.4817776844
C     -1.3959432013     -3.2976814016     1.3235279874
C     -0.3097149186     -3.787182972     0.5981067654
C     -2.2141725203     -2.2323481363     0.7904750631
C     1.2619765453     -2.7697318918     -0.7221674665
C     -0.0819393512     -3.2946789884     -0.7086638063
C     2.3231215353     -0.5766484569     -1.1664558986
C     1.6286477156     -1.7629640647     -1.6276231207
C     2.1520182418     1.8954985294     -1.3334933992
C     2.219089315     0.6285934857     -1.9921420203
C     0.5841476603     3.4104460662     -0.5740928514
C     1.2670040276     2.9516225634     -1.7747039752
C     -1.525580422     2.6824455899     0.469498533
C     -0.8154117802     3.4657387526     -0.558722252
C     -2.5928364754     0.4584613117     0.0994648337
C     -2.4840664056     1.8370950061     -0.2560062208
C     -2.1292410123     -1.8695619817     -0.5732474814
C     -1.0997039877     -2.5548650331     -1.3870519476
C     -2.5248409467     -0.5252216883     -0.9647003396
C     0.7450326875     -1.650484412     -2.7594017896
C     -0.6798564209     -1.920644274     -2.5467326617
C     1.5592476825     0.5788334512     -3.3024233026
C     0.8449582739     -0.607291539     -3.6617490747
C     0.5639510378     2.8294753558     -2.9941244479
C     0.8110700406     1.6958117923     -3.7992117672
C     -1.5297025486     3.32187201     -1.7890797844
C     -2.5026264452     2.2346277468     -1.5898949928
C     -0.8816585557     3.0764423935     -2.9835416278
C     -2.3333298848     -0.0863717455     -2.3650024248
C     -1.425296174     -0.8618104818     -3.1729852228
C     -0.5122032376     -0.206082488     -4.0569214281
C     -0.5197729828     1.1745926115     -4.2268453972
C     -2.4366565923     1.3163862712     -2.6899479018
C     -1.5353838107     1.9323641283     -3.6408012274


