58

 C     1.3743242181     0.1003555843     4.3471634492
C     0.6110111735     -1.0996884617     4.0840329408
C     1.4424466905     -1.9888474966     3.4189885936
C     2.5854807238     0.0301080165     3.4920227594
C     2.6972029566     -1.2667425227     3.0206231641
C     2.5710660794     1.1061956221     2.5351527076
C     0.6324233206     1.1663301308     3.8700878771
C     1.422831613     1.9203867144     2.9129993353
C     -0.6476369858     -0.725057765     3.4027624412
C     -0.6789880837     0.6979759266     3.3859574666
C     -1.168145794     -1.4842574317     2.2890556314
C     0.9930459737     -2.7342275565     2.3153052627
C     -0.3787640138     -2.6382541332     1.8483719937
C     2.9040108075     -1.5407682103     1.6487942979
C     2.0540420169     -2.6867628308     1.3237732988
C     2.7938959663     0.8747717337     1.1321279028
C     3.0099832899     -0.4994123851     0.6662445813
C     2.2069566186     1.8454052232     0.1840768686
C     0.7425075318     2.6516977007     1.9763637518
C     1.2458922613     2.7909551043     0.6448704002
C     -1.3528038441     1.4014790352     2.3676032584
C     -0.7167543659     2.592856236     1.8808167062
C     -2.0453848508     -0.815825433     1.3343320256
C     -2.2186929513     0.639308615     1.4542887179
C     -2.3594299219     -1.4372160686     0.0362959218
C     -0.6076442578     -3.1445280804     0.5532126284
C     -1.6308728534     -2.6048937565     -0.3098557278
C     1.7973846576     -3.0333161188     0.0238501853
C     0.5029048964     -3.5434262584     -0.2773077193
C     2.693429845     -0.8589880161     -0.7363516181
C     2.2101024342     -2.1604529968     -1.0634926938
C     2.0983892105     1.5014076534     -1.1938716677
C     2.3516890958     0.1822001564     -1.6544417127
C     1.1197452507     2.1281284231     -2.0962727511
C     0.1404199429     3.2288746947     -0.1924776689
C     -1.0586469753     3.0933476337     0.6130486721
C     0.0926148783     2.9906831192     -1.5845863578
C     -2.7846233833     1.3445218426     0.3821428675
C     -2.2534710634     2.6611854782     0.006015468
C     -2.9663117641     -0.6621153977     -1.0697127409
C     -3.2874824622     0.7061647937     -0.8286844507
C     -2.6304343356     -1.0051221983     -2.4462689633
C     -1.1691872473     -2.791623666     -1.6863615423
C     0.2079006317     -3.199915778     -1.6157799137
C     1.2362549103     -2.3422548979     -2.1203773542
C     -1.5480348327     -1.9326386536     -2.6732621499
C     1.5153019043     -0.0414956271     -2.8241389265
C     0.8353679289     1.2023180258     -3.1373466545
C     0.8644538384     -1.283665135     -3.0095126317
C     -0.5120774454     -1.2729452474     -3.5085935801
C     -2.4668304918     0.006858406     -3.4316041955
C     -0.4442059931     1.1851663792     -3.7738944557
C     -1.0854970447     -0.1004665307     -3.9669533293
C     -1.2210405082     2.9427612992     -2.2185880004
C     -2.3806885554     2.7849712844     -1.3728088098
C     -3.1978309995     1.6774233647     -1.8790077575
C     -1.4319527122     2.1015153741     -3.3413887042
C     -2.7096469095     1.3395550828     -3.1374391077


