58

 C     1.3662732142     0.0412676194     4.4591038465
C     0.5167907833     -1.0892154516     4.1110186023
C     1.2295787514     -1.9290351785     3.2715806727
C     2.5276464465     -0.0060064454     3.5676085188
C     2.5144407328     -1.23329476     2.9103670969
C     2.588227797     1.1970882154     2.7627124811
C     0.6616857112     1.181375     4.0855520587
C     1.4668025027     2.0227658309     3.2137784615
C     -0.7615712346     -0.6008497432     3.6040965927
C     -0.6890914499     0.8418673348     3.6359214656
C     -1.4163754414     -1.2569252769     2.5147184762
C     0.6716249905     -2.4627714165     2.0817652153
C     -0.6993101429     -2.2784720391     1.7296946055
C     2.6554355523     -1.3338174144     1.5101611419
C     1.6552315213     -2.2794456136     1.0386972551
C     2.8817207083     1.1253224782     1.3550409705
C     2.922066403     -0.1876467614     0.6860923993
C     2.4041953652     2.2252178461     0.561907875
C     0.8158578821     2.8636618288     2.3220108532
C     1.443962204     3.1243960185     1.0886736954
C     -1.3343261744     1.6275656072     2.6331926595
C     -0.6298048796     2.7233490606     2.0253385829
C     -2.3467092627     -0.4676085084     1.7857236616
C     -2.2812852179     0.9624112725     1.813372843
C     -2.8519801496     -0.8821149759     0.5045816136
C     -1.0694748125     -2.5529640892     0.3573431755
C     -2.3270290766     -2.00184649     -0.1803872805
C     1.3227470701     -2.3967912531     -0.2977433819
C     -0.0311345287     -2.8377934774     -0.6106256532
C     2.6237464563     -0.3245086287     -0.7259041524
C     2.0578811361     -1.5566772376     -1.2395449027
C     2.0931424282     2.0711641889     -0.8334659919
C     2.3187389428     0.8850822405     -1.5157648022
C     0.4391533539     3.3917019858     0.0780472899
C     -0.8429276848     3.0545053233     0.6454308507
C     0.8332510516     2.8203119684     -1.1178697104
C     -2.6153040096     1.4264114126     0.4805859853
C     -3.1618796536     0.3198309479     -0.2457044098
C     -1.8089968752     2.3809586406     -0.1808376656
C     -3.1569347609     0.3182174201     -1.6325179127
C     -2.60405323     -2.074352358     -1.593733464
C     -3.1144400371     -0.930199393     -2.2951816204
C     -0.3543283764     -2.9517064684     -2.0013938486
C     -1.670257873     -2.6936057284     -2.4743144042
C     1.6567462936     -1.6466426432     -2.6033636008
C     0.5749586698     -2.4663720585     -2.9775778791
C     1.6506782066     0.7728682174     -2.7905346794
C     1.5579233104     -0.4470673015     -3.4205981845
C     -0.1212060972     2.3425277579     -2.0686622756
C     -1.5208352887     2.1718598113     -1.6281698914
C     -2.3056802094     1.2616957214     -2.3595298941
C     0.3923914092     1.5095769294     -3.0728624986
C     -2.391375415     -0.7779575334     -3.5461050894
C     -1.5935686465     -1.9284713645     -3.7244838136
C     -0.2239234928     -1.773207585     -4.0329265563
C     0.3280410723     -0.5111926592     -4.219727615
C     -1.8061660977     0.5419479596     -3.5442713656
C     -0.4409698482     0.6736112166     -3.9003163921


