58

 C     1.6332111253     -0.0356059417     3.9110394746
C     0.8150063157     -1.1462381389     3.6835631608
C     1.3971653333     -2.0519393477     2.7201869284
C     2.6596645938     -0.1024574013     2.9000195918
C     2.5699138958     -1.3777500639     2.2057252505
C     2.5485634149     1.0295045237     2.0753131041
C     0.7893510384     1.0972790027     3.5867949443
C     1.3804690616     1.8185006307     2.5324566404
C     -0.5926333032     -0.7339272605     3.5578357925
C     -0.5969291115     0.7142716989     3.4576000804
C     -1.4039999322     -1.4675582945     2.7190164183
C     0.5475324279     -2.7661236191     1.8241525214
C     -0.8723715589     -2.5281542216     1.8744389047
C     1.0925731955     -3.1465505401     0.5810502595
C     2.9656750671     -1.5107274752     0.8439330212
C     2.3805014543     -2.6201955277     0.1475998584
C     2.8871414535     0.9750061819     0.6784417816
C     3.2631361555     -0.2914682888     0.0692842615
C     2.3006142801     1.9963931661     -0.1197380361
C     0.5668568084     2.5281175195     1.615504705
C     1.1582563422     2.7618678573     0.3369883667
C     -1.460412877     1.3862791048     2.5452631095
C     -0.886543851     2.4439826172     1.7168424598
C     -2.4869382893     -0.8037783085     2.021651424
C     -2.6018648408     0.6239420192     2.006112183
C     -1.6414236952     -2.504113651     0.6717359746
C     -2.7329805381     -1.5617367132     0.8338754561
C     0.2754666082     -3.2085953866     -0.6151186968
C     -1.060554209     -2.7188460022     -0.62301295
C     2.4334540302     -2.6941395423     -1.2743783207
C     1.1179583444     -3.0063346184     -1.7465963226
C     3.2231257204     -0.3695091966     -1.3691285795
C     2.8842154812     -1.5839405621     -2.0148437854
C     2.193370981     1.8678828098     -1.5514130409
C     2.63071578     0.7089836685     -2.1617139369
C     0.3706280608     3.1317227127     -0.8104080343
C     0.9743777068     2.5411010949     -1.9888817752
C     -1.649470875     2.9195239129     0.5949634337
C     -1.0051722431     3.2532809756     -0.6946021105
C     -3.354598203     1.1764033698     0.9277187351
C     -2.9179958127     2.405415588     0.3171167869
C     -3.3082014009     -0.9640433577     -0.2815044695
C     -3.7939402064     0.3463575706     -0.1509040147
C     -1.5327799356     -1.9223152354     -1.7875320807
C     -2.6761847196     -1.114962842     -1.6133532989
C     0.7532508183     -2.0989139949     -2.798802232
C     1.906748908     -1.2998183252     -3.0599118656
C     1.7835154543     0.102186781     -3.1982506732
C     -0.5610865597     -1.5184704385     -2.8251808462
C     0.1548460028     1.9479768325     -2.9449705384
C     0.5272576865     0.639429489     -3.463969727
C     -0.6611500643     -0.1953969615     -3.3655677791
C     -1.8575190794     2.7714581431     -1.7652993047
C     -3.0653993621     2.3040610688     -1.1441888002
C     -3.5498626515     1.038522975     -1.4208705744
C     -2.8479698417     0.1466782825     -2.3069234701
C     -1.287412924     2.007618942     -2.7999263404
C     -1.7791674512     0.6598626685     -3.0592330446


