58

 C     1.4649485158     -0.0119241053     4.3155817587
C     0.6306033268     -1.1874633137     4.1251939601
C     1.3184261829     -2.0405586342     3.2618044406
C     2.5829026923     -0.1063203025     3.3666955186
C     2.5682745366     -1.3574997163     2.7847074487
C     2.5704777219     1.028988936     2.4595264108
C     0.7095899962     1.0581938503     3.8464758402
C     1.40478725     1.8026334553     2.8068744252
C     -0.691892124     -0.7698421954     3.6748039354
C     -0.6499069239     0.6636160326     3.5446892377
C     -1.4236184786     -1.5380588709     2.7018431506
C     0.7147728508     -2.6644598686     2.1459692609
C     -0.6959531318     -2.5694824594     1.92493809
C     2.6403136345     -1.5422787806     1.3665993632
C     1.6094788586     -2.4940877045     1.0125863998
C     2.9016202677     0.8668692666     1.0734993293
C     2.9162241779     -0.4682972117     0.4704742402
C     2.4946966131     1.9489603351     0.2609770854
C     0.681272591     2.5299960324     1.832184356
C     1.441254892     2.8222124238     0.6763569392
C     -1.4033997929     1.3483232241     2.5444494248
C     -0.7815459277     2.3591755377     1.6846188961
C     -2.471054669     -0.8567453539     2.0488471609
C     -2.5064204274     0.6008614943     2.0346310927
C     -3.0180390928     -1.3112454146     0.7680240249
C     -1.1267987068     -2.8656590029     0.6108151867
C     -2.3351414546     -2.3036934922     0.034020764
C     1.165913831     -2.6208610499     -0.3105536791
C     -0.1940869294     -3.0224305573     -0.4716660456
C     2.5570759139     -0.631211487     -0.9429956205
C     1.816133074     -1.8202527053     -1.3484150604
C     2.4033003737     1.8363433846     -1.1853384955
C     2.470415298     0.5421805466     -1.8082081705
C     0.8142914941     3.3017772489     -0.5184908543
C     1.5187436951     2.8428776459     -1.6692517254
C     -1.3789961954     2.6413705303     0.3835638194
C     -0.5669381809     3.121011719     -0.7082470178
C     -3.128544872     0.9918861557     0.8331438743
C     -3.5012134833     -0.1917462388     0.0635580841
C     -2.5520460367     1.9259861573     -0.0239198431
C     -3.2122250928     0.0326720282     -1.2945377196
C     -2.6856932771     1.3825429087     -1.4010566693
C     -2.1939117195     -2.1962330912     -1.3883758304
C     -0.8819392369     -2.7597929233     -1.7051575611
C     -2.6369925962     -1.02069559     -2.1017146555
C     1.219652266     -1.8701312063     -2.6375188136
C     -0.1629502874     -2.326888895     -2.7964876753
C     1.8380806949     0.4438894708     -3.0937680581
C     1.3772597115     -0.794854227     -3.5654087625
C     0.5440557234     2.523270264     -2.6648232965
C     -0.7664073031     2.6839888305     -2.0935349371
C     -1.8047273905     1.7428149036     -2.4390977309
C     0.8034430186     1.4466406323     -3.5178886272
C     -1.9253768153     -0.6184060471     -3.2658598961
C     -0.8116545071     -1.4267507162     -3.7464721529
C     0.1455698673     -0.6107846278     -4.3400289839
C     -1.5532420818     0.7638720733     -3.4802176765
C     -0.2628623248     0.7457006509     -4.13841796


