58

 C     1.6914747503     -0.069246489     4.4227211085
C     0.9217668946     -1.2026830739     4.5110335498
C     1.3336784327     -2.1906668142     3.5356109212
C     2.5623428028     -0.2405054539     3.25546595
C     2.3377086844     -1.5774744589     2.7043138137
C     2.297520346     0.821804816     2.3870883503
C     0.7761678643     1.0445846984     4.1502024234
C     1.235920684     1.6819603638     2.997470041
C     -0.5104109353     -0.8784099637     4.2962726782
C     -0.6037713476     0.5480888026     4.1429236651
C     0.1333710306     -2.6281014871     2.9116727984
C     -0.9943555259     -1.7261639005     3.2842125679
C     0.2009991634     -3.0412554614     1.6116587303
C     2.2939487372     -1.7629020242     1.2882578549
C     1.3840501457     -2.7598712317     0.8300139187
C     2.3468813063     0.6925611294     0.9450292534
C     2.4686051627     -0.623798334     0.3663539391
C     1.8140665178     1.7777435273     0.1507833212
C     0.3381413386     2.3457824614     2.1239502643
C     0.8024978438     2.6391953685     0.7833906932
C     -1.4601407822     1.0323148521     3.1533470067
C     -1.0549543191     2.1394395126     2.3325546639
C     -1.8671675078     -1.2356798394     2.2160979489
C     -2.1945901351     0.1380581828     2.2525217407
C     -0.9199357916     -2.9037374483     0.6934476825
C     -1.8830801653     -1.8787591599     0.8968486751
C     1.0240414052     -2.8602785407     -0.5401318941
C     -0.4039268646     -3.1255941245     -0.6063983579
C     2.2257967952     -0.786056694     -1.0627263899
C     1.6122577863     -2.0437777413     -1.5285025391
C     1.8895774047     1.6981468917     -1.2958948809
C     2.1386388715     0.3815504406     -1.917651511
C     1.1733974619     2.6958584729     -2.0557491284
C     -0.1369650917     3.2619733481     -0.0610060306
C     0.1195715133     3.3888442772     -1.4161073504
C     -1.9212904052     2.1618239007     1.1801162761
C     -2.5302425825     0.8650516849     1.0377277434
C     -1.5572779965     2.8621020564     0.0727989332
C     -2.3940475023     -1.1601523158     -0.3139683696
C     -2.6538501414     0.2840346302     -0.2484798083
C     -1.1301420226     -2.738329438     -1.7215922729
C     -2.1401476367     -1.697919281     -1.5865850677
C     0.9736471893     -2.100996491     -2.8122292083
C     -0.418166044     -2.4950250842     -2.8967753161
C     1.7192285947     0.1852794538     -3.3046580311
C     1.1471808346     -1.0364644776     -3.710092386
C     0.6707960293     2.3951509507     -3.3840355801
C     0.953819281     1.2207732198     -3.9929723248
C     -1.1344881357     3.100137854     -2.1632058608
C     -2.0288682662     2.4753534816     -1.2288729737
C     -2.4844663948     1.1341545151     -1.4531840265
C     -0.8216003136     2.5375068382     -3.3602852993
C     -2.0942673125     -0.8968069613     -2.8250037571
C     -1.1406844059     -1.5239464081     -3.6953926481
C     -0.1785421068     -0.7476945928     -4.3625894915
C     -0.3305342497     0.6091135197     -4.4570328369
C     -2.203015505     0.5333419961     -2.7803292487
C     -1.3961653944     1.2805660739     -3.7524339232


