58

 C     1.5408634925     0.0944205111     4.1141002179
C     0.7593817531     -1.092167594     3.9971190622
C     1.4142078839     -2.0006994502     3.1090575389
C     2.6214336509     0.0293476609     3.1931505642
C     2.6405905791     -1.3188192809     2.6784812058
C     2.3994733723     1.0703581844     2.2348657283
C     0.7005973193     1.2126285498     3.8134087713
C     1.2574595819     1.8843344423     2.6804584658
C     -0.6265808494     -0.7086068403     3.8022744423
C     -0.6636167375     0.7765140535     3.7783676859
C     -1.3689131409     -1.3831788566     2.8457325852
C     0.6415316802     -2.7356147676     2.1298988369
C     -0.7516705484     -2.4129134448     2.0079991774
C     1.2912650259     -3.1381174071     0.9239042911
C     3.1053541291     -1.5055888236     1.3918833028
C     2.6108094722     -2.5922600468     0.6365072706
C     2.6591389233     0.8872798945     0.8153954786
C     3.2230724528     -0.366255374     0.4536388973
C     1.9125366451     1.6639293536     -0.1730980678
C     0.4173407721     2.4963509707     1.7336439131
C     0.8576337684     2.5617780128     0.3151646643
C     -1.5073021864     1.4248423783     2.9033419674
C     -0.9946112332     2.4551738286     2.0229480352
C     -2.3642826623     -0.6950707958     2.0295728274
C     -2.50291828     0.691105825     2.1192240532
C     -1.4024373843     -2.3789874767     0.7320253769
C     -2.3998335127     -1.3143556453     0.7351012518
C     0.6029560171     -3.1874800175     -0.3306776221
C     -0.749455209     -2.7460027226     -0.4761638924
C     2.7379772403     -2.3091235113     -0.7432641682
C     3.0294284894     -0.8778620268     -0.8634903089
C     1.5734784949     -2.7956235213     -1.3659882582
C     1.8743975245     1.2204958649     -1.5691863462
C     2.4118335582     -0.1082673345     -1.8723827549
C     0.9357105389     1.8379373361     -2.5310746168
C     -0.0593355178     3.0765431846     -0.601765569
C     0.0132349435     2.8167934957     -2.0300718663
C     -1.9138750601     2.5770552197     0.9502821305
C     -2.819994443     1.4343516061     0.9487169714
C     -1.4837218669     3.1428748891     -0.2441796143
C     -2.7709176593     -0.6227367731     -0.4462345773
C     -3.1044710785     0.8001272297     -0.3001328117
C     -1.224029518     -2.160210985     -1.743801118
C     -2.2841157002     -1.1499628715     -1.7405517317
C     1.1298155975     -2.1733452111     -2.4993662271
C     1.7489614829     -0.8859780919     -2.9106154586
C     -0.2640501391     -2.1075900096     -2.8197021312
C     0.4955749085     1.0788609463     -3.6979656259
C     0.8847769642     -0.2918100445     -3.7943831804
C     -0.358105874     -1.1189971121     -3.8421185309
C     -2.432838083     -0.2850103937     -2.9004282282
C     -0.8957952019     1.1056714569     -4.0899076568
C     -1.4220952287     -0.2839556405     -3.9408201309
C     -1.3274915566     2.8919012164     -2.5451643834
C     -2.2134550757     2.8511629855     -1.394571169
C     -3.0220207788     1.6497786527     -1.4553242932
C     -1.7869009939     1.9360567543     -3.4573961875
C     -2.7760007617     1.0789176074     -2.716438147


