58

 C     1.1942689555     -0.2749510205     4.197724715
C     2.3272659603     -0.5621165886     3.4570440659
C     2.1858002952     -1.9050019505     2.8632790856
C     0.3010747177     -1.4538206185     4.1224447069
C     0.9023245773     -2.424723444     3.22552632
C     -0.9738671958     -0.974981124     3.8642938843
C     0.4120340732     0.9158124207     3.8980772188
C     -0.9523434841     0.4842291116     3.7427936238
C     0.8966324035     1.8075213447     2.9387839995
C     2.8100291782     0.3239053412     2.4352878586
C     2.1675984575     1.5552477994     2.2541873945
C     2.6136049431     -1.8394005893     1.5260296892
C     3.1053895107     -0.4826700365     1.2530988209
C     1.8799377323     -2.5335269696     0.4918306137
C     0.1085153869     -2.9657956559     2.186662422
C     0.6275181292     -3.1170281836     0.8589391195
C     -1.7801494614     -1.487692187     2.7858951581
C     -1.2885615725     -2.538889713     2.0277513483
C     -1.744935229     0.8632603787     2.6455276099
C     -2.3784698002     -0.3370488255     2.0938446511
C     0.005020038     2.3902515026     1.9468840255
C     -1.3057275849     1.8908500585     1.733897505
C     2.0792964786     2.1148402195     0.9373499647
C     0.7860117156     2.7550641626     0.7956382152
C     3.0494150937     0.0567720383     -0.0390912493
C     2.6427008171     1.4643659737     -0.1904428655
C     2.0332624244     -2.0581919814     -0.8406775371
C     2.7049300907     -0.8423811024     -1.1197082815
C     1.0022634485     -2.2306786032     -1.8712806083
C     -0.4789599439     -3.0181351733     -0.0957399916
C     -1.6323391929     -2.5966220162     0.6287846594
C     -0.2940251119     -2.663222087     -1.4705533622
C     -2.7597634557     -0.3838587047     0.7660440667
C     -2.5092144249     -1.6496471777     0.0326780093
C     -1.8922794139     1.953563278     0.3964675058
C     -2.7803528984     0.8777578414     -0.0075115787
C     0.2029301894     3.0118039205     -0.4506210247
C     -1.2404004616     2.7671853338     -0.6313734625
C     2.1835505637     1.9188337263     -1.4516926771
C     1.0879668118     2.84036114     -1.5747892948
C     2.2173589407     -0.3520723752     -2.383639664
C     1.1480036863     -1.2198891513     -2.8643843663
C     2.115186888     1.016965842     -2.6036495218
C     0.0211484756     -0.7015364692     -3.6185647791
C     -1.410892754     -2.1139709766     -2.1570486233
C     -2.5276810345     -1.6258725236     -1.3736872451
C     -1.2681111482     -1.2357395769     -3.3003745524
C     -3.1517240021     0.7852078194     -1.3716596766
C     -3.0762332132     -0.5149131381     -2.0580827954
C     -2.4462043873     -0.3667669158     -3.313947364
C     -1.7335075805     2.7007836441     -1.9711881793
C     -2.7276189397     1.74909007     -2.2983050257
C     -2.2945017753     1.0228683182     -3.5411360444
C     0.5397238872     2.7098674051     -2.8849511044
C     1.1268136196     1.5036220417     -3.508490575
C     0.0930149708     0.7109689724     -4.0271364021
C     -0.8102318294     2.718950122     -3.1110520844
C     -1.1124965548     1.5611950429     -3.9759862904


