58

 C     1.2822729214     0.0628765214     4.0832386001
C     2.4276923715     -0.1756704955     3.2987991827
C     2.338414623     -1.5234291445     2.7788462221
C     0.3934538031     -1.1367160288     3.9833857895
C     1.0909950665     -2.1160416386     3.2141223487
C     -0.8821897407     -0.6907597895     3.5701286161
C     0.5223188841     1.2114735788     3.8991785248
C     -0.8521882429     0.7500326832     3.6249137545
C     0.8525573069     2.1583283562     2.8891522314
C     2.7517793821     0.7128991086     2.2240851688
C     2.006218226     1.9355151249     2.0464031444
C     2.6641742003     -1.5031766162     1.4016429997
C     2.9905966842     -0.1242066465     1.064187534
C     1.9808156774     -2.3429526349     0.4595356727
C     0.3826143168     -2.8963531678     2.3184155607
C     0.9465842699     -3.1914687181     1.0043252298
C     -1.6035723053     -1.3534114029     2.4860061258
C     -1.0357486981     -2.6108534057     2.0872959486
C     -2.328138295     -0.5661120149     1.4922874952
C     -1.3994533643     1.5066363667     2.6128292396
C     -0.3873875185     2.5022160015     2.2217630822
C     -2.2545478798     0.9034343533     1.5976035966
C     -0.4503030784     3.0920156607     0.9527828051
C     1.9331110461     2.4380208167     0.7137891843
C     0.7767540539     3.1936388364     0.2102116719
C     2.819562008     0.3342866573     -0.2508104653
C     2.4607586748     1.7217726746     -0.3898447262
C     1.9110299892     -1.9289435388     -0.9522751427
C     2.4178034208     -0.609108555     -1.298415142
C     0.894113226     -2.5369473672     -1.8272161322
C     -0.1334598263     -3.5454682447     0.1686983509
C     -1.3609023479     -3.1324190702     0.8274656309
C     -0.2019489853     -3.2160324558     -1.1877986547
C     -2.6328985372     -1.1349618528     0.1627280863
C     -2.1478511152     -2.4450949551     -0.1143425086
C     -1.5556325858     -2.7292042405     -1.4230345441
C     -2.9054375244     -0.2555202541     -0.9994273151
C     -2.5015417627     1.7067806811     0.487601668
C     -1.6639407806     2.8879713199     0.2065298696
C     -2.931247258     1.1586667086     -0.7863915592
C     -1.6620261603     3.0656233221     -1.1765531466
C     -2.5115771843     2.0511546474     -1.7964099302
C     0.7692784165     3.1553123507     -1.2134227045
C     1.8233735189     2.2259293531     -1.5971258284
C     -0.4522186804     3.1313619473     -1.9287525784
C     2.0340793258     -0.0258885052     -2.5614638392
C     1.6746822672     1.4039108794     -2.677237173
C     0.567563834     -1.9245681764     -3.0718875454
C     1.2232747979     -0.7205734275     -3.451136226
C     -1.8316752106     -1.9302790569     -2.5092255508
C     -2.5758921201     -0.6774985408     -2.3283471889
C     -0.8070601564     -1.7311249853     -3.4626019489
C     -1.9320490756     1.612680612     -3.0057482938
C     -0.6083803619     2.2744884867     -3.0986467873
C     0.4825397879     1.5094372241     -3.5407117637
C     0.2571556325     0.2154846734     -4.0862499704
C     -2.0801470632     0.2513427509     -3.33340016
C     -0.9861518436     -0.3985067574     -4.0194764993


