58

 C     1.4085184424     -0.0957695642     3.4720373384
C     2.4992702745     -0.2877403582     2.5812967547
C     2.2969151297     -1.550518184     1.9156768397
C     0.5757024667     -1.2736301384     3.4386263987
C     1.0916625503     -2.1821686375     2.5157820468
C     -0.806156893     -0.8430811443     3.3657260089
C     0.5751881907     1.0545341882     3.3718746457
C     -0.8032785034     0.6214228377     3.2167545717
C     1.0632617889     2.1755518007     2.6699604025
C     2.9598526146     0.8187096049     1.8388600322
C     2.341616074     2.0829926862     2.0557504295
C     3.2747020739     0.6882025723     0.4261834597
C     2.5682209522     -1.6954413242     0.54153394
C     3.0464244865     -0.5293345869     -0.2608938929
C     1.8406571052     -2.7512784813     -0.1329871559
C     0.1886130633     -3.0013939126     1.7405814017
C     0.6236802025     -3.3805336604     0.4573567834
C     -1.701754202     -1.6268069694     2.691675494
C     -1.2343236319     -2.8211667189     1.9655348238
C     -2.7512673488     -0.9834239617     1.910638521
C     -1.6673428483     1.2601201525     2.2936933045
C     -2.7275340535     0.4375460691     1.6724842169
C     0.1927205283     2.8697940437     1.7541051839
C     -1.1389496352     2.4528227731     1.5652458518
C     2.3021572404     2.7986283156     0.8034078526
C     2.953657227     1.9810570008     -0.2002584211
C     1.0184217459     3.3003171874     0.5945322345
C     2.5147052075     2.0575952896     -1.4933658583
C     2.7099325343     -0.4468730171     -1.6984289231
C     2.4871538185     0.8434682826     -2.2999475205
C     1.6547635411     -2.6817673304     -1.5025943159
C     1.9624354958     -1.511771969     -2.2706106391
C     -0.3213342143     -3.5568490487     -0.6226410772
C     0.2992350013     -3.1251151465     -1.819511883
C     -2.1236957205     -2.9808223889     0.8902034526
C     -3.0850185449     -1.882565821     0.8757081317
C     -1.6799719583     -3.2261468475     -0.4390741497
C     -3.2172501088     -1.4477619847     -0.4655396117
C     -2.3078792779     -2.2442661809     -1.31710481
C     -3.2281473603     0.8410625043     0.4049215877
C     -3.3764607386     -0.0945936325     -0.6901981959
C     -1.7325314114     2.8085754562     0.2923668791
C     -2.8020964334     2.0737878039     -0.1886015637
C     0.4853672087     3.3585407746     -0.7471186645
C     1.3315945676     2.8727108187     -1.8221548688
C     -0.9094928277     3.22907974     -0.8786517725
C     1.468252959     1.0258298906     -3.2588591281
C     0.7389901922     2.2470566519     -2.9312924067
C     0.8029017698     -1.269153752     -3.1032892277
C     -0.2777662756     -2.1615809612     -2.6541331693
C     -1.5981312366     -1.6296027713     -2.3824155495
C     0.5124111791     0.0144482378     -3.5214576696
C     -2.8120759618     0.5242512496     -1.9003684317
C     -2.638157194     1.8857036741     -1.6281155161
C     -1.4877743803     2.5981895148     -2.0440286365
C     -0.6577605081     1.9873652874     -3.0067996345
C     -1.8611554296     -0.2034983388     -2.7166561888
C     -0.8416789738     0.5752924243     -3.3254197154


