58

 C     1.46622582     -0.3843816027     4.7137788715
C     0.5607457414     -1.3900739497     4.483666632
C     1.0517752018     -2.2425765857     3.3803062291
C     2.5657452236     -0.5450708795     3.7721218838
C     2.2689649631     -1.6947291086     2.8786934789
C     2.7740492999     0.6975809698     3.1859070446
C     0.7936957903     0.9170601235     4.4153520334
C     1.6565902137     1.6285663478     3.5912644421
C     -0.674875135     -0.8018567485     4.0082891522
C     -0.5396145107     0.6463620651     3.9327602943
C     -0.0162235905     -2.4421831354     2.4849685713
C     -1.1252272771     -1.5405826818     2.8871445618
C     0.2208312428     -2.5901146672     1.1122667044
C     2.4485030755     -1.5805923388     1.460252795
C     1.517439569     -2.2560233006     0.5705711923
C     2.9498083682     0.8416414284     1.7989278283
C     2.9943487202     -0.3151118135     0.9283286091
C     1.2085557661     2.2565004178     2.412061745
C     2.185690333     1.9953437886     1.3499096574
C     -1.0224706871     1.2813148429     2.7466786498
C     -0.1700057995     2.2293273344     2.028316813
C     -1.8925053159     -0.9241586088     1.8905280791
C     -1.9654306913     0.5313809192     1.9070591673
C     -0.9559090243     -2.4980397786     0.2569058484
C     -2.0388740967     -1.6216144864     0.6253703792
C     -0.7591758502     -2.8190313615     -1.1060964025
C     1.5988972757     -2.0601624845     -0.887415389
C     0.5481862788     -2.5245209928     -1.7122616384
C     2.8594491259     -0.026862519     -0.4287234204
C     2.3672351612     -0.9799178488     -1.3988087352
C     1.8939913889     2.1989993898     0.0112689089
C     2.5178591411     1.2956237184     -0.9191864891
C     -0.4745591823     2.6067868166     0.6590565909
C     0.5912471388     2.7663841611     -0.3429158161
C     -2.4087346478     1.1275075149     0.7299772114
C     -1.7589735945     2.2856103737     0.1647551147
C     -2.8395607248     -1.028003469     -0.43571718
C     -3.0310560399     0.3898896658     -0.3606107405
C     -1.7497265035     -2.5673628175     -2.0474073571
C     -2.8037885224     -1.6161935396     -1.7454717652
C     0.2869860611     -1.9979294267     -3.0288952701
C     -1.1177156155     -2.2083598979     -3.3040158118
C     1.9413808414     -0.2701937877     -2.5654790853
C     2.0287744718     1.1526751707     -2.2276165363
C     0.9208591552     -0.7570623814     -3.4437969415
C     0.2442914138     2.7928658786     -1.7010001152
C     1.0400219643     2.0407604711     -2.7082606853
C     -2.1067750635     2.3426460702     -1.2239613231
C     -3.004592054     1.215741866     -1.5317312226
C     -1.1290864941     2.7212559429     -2.1500113115
C     -2.9395393784     -0.8002937114     -2.8966160593
C     -1.8759059478     -1.1842890984     -3.8706264136
C     -2.9760021474     0.6195807331     -2.8168922387
C     0.1171967073     0.2316563312     -4.1496584494
C     0.2162026293     1.6276575462     -3.7533994452
C     -1.1363282077     2.1095608647     -3.4646505464
C     -1.2791394655     -0.0150402209     -4.3553981161
C     -2.0437525157     1.1320525107     -3.8098640042


