58

 C     1.010841064     0.0323267342     4.257789177
C     2.1454687504     -0.1096354436     3.4757961752
C     2.0721950811     -1.3742222596     2.7531789307
C     0.1542538555     -1.1516285163     3.9890467252
C     0.7877328279     -1.9721115369     2.998965862
C     -1.1152987359     -0.6636044931     3.7265569925
C     0.208071849     1.2316950382     4.1518575857
C     -1.131107188     0.8010894369     3.8958633675
C     0.7165123401     2.3178123556     3.37792887
C     2.5578571743     0.9037651966     2.5199862939
C     1.9161824235     2.1262404563     2.525718393
C     2.5367249962     -1.1810836726     1.4453306599
C     2.8434720178     0.2232472046     1.2408106643
C     2.0161683237     -1.9626827529     0.3886842802
C     0.0624930671     -2.4376574246     1.8687839486
C     0.8181530006     -2.7231031689     0.6693484454
C     -1.8241828325     -1.0004286208     2.5342322138
C     -1.3114674539     -1.9643331118     1.6459308873
C     -1.9053364696     1.3380138343     2.842652931
C     -2.3896904015     0.2515265114     1.9918898919
C     -0.1914191042     3.0489395979     2.58295346
C     -1.4790791767     2.5380358291     2.2284305461
C     1.6891224227     2.7864749507     1.235928505
C     0.4539939357     3.460762948     1.3409069958
C     2.6093039811     0.8035024852     -0.0166618561
C     2.0535995597     2.1686236202     -0.0185046538
C     2.2567977245     -1.5099120348     -0.9639041191
C     2.4218425304     -0.0845994887     -1.1863582471
C     1.7443125156     -2.349234128     -2.0108066458
C     0.0969079517     -3.2308557259     -0.4357206557
C     0.6957726427     -3.2916492656     -1.6882883604
C     -1.875733553     -1.9868020347     0.2973508269
C     -1.3195767509     -2.8808922043     -0.6264236351
C     -2.5869034835     0.4145567326     0.6216870238
C     -2.5679791109     -0.7972252267     -0.2184209799
C     -1.6710615045     2.7097500045     0.8034664778
C     -0.4849344459     3.4105912494     0.2887483716
C     -2.2758519388     1.7204436418     -0.0012567243
C     1.2861913768     2.5314185474     -1.1469325199
C     -0.0228145253     3.1083127253     -0.9733781396
C     1.8819596098     0.462703643     -2.4305820067
C     1.238180369     1.7251886306     -2.349207199
C     1.4605673887     -1.8342513056     -3.2935597817
C     1.4129921136     -0.4316754757     -3.4922317143
C     -0.3412719151     -3.179997392     -2.7212503369
C     -1.5650342075     -2.8006168168     -2.0494558037
C     0.1670155064     -2.4037420318     -3.7569229282
C     -2.7165346312     -0.6666708817     -1.6051113545
C     -2.3082518899     -1.7030161319     -2.5478498501
C     -2.0264427754     1.7505839531     -1.4407468579
C     -0.8954769572     2.4725803775     -1.9219370196
C     -0.072455821     1.8893925256     -2.9457774862
C     -2.4637176434     0.6399100928     -2.2426074982
C     0.2210724175     -0.1254294616     -4.2475318041
C     -0.6012136515     -1.3428524869     -4.2959809975
C     -1.8624647263     -1.0426077025     -3.7461161447
C     -0.6073418838     0.9341055955     -3.8150210104
C     -1.9231160499     0.4009269178     -3.5112781816


