58

 C     1.4990078602     -0.2986297018     4.6910804694
C     0.6694693575     -1.357619523     4.5435722615
C     1.1800056604     -2.2551400499     3.4930026116
C     2.5917412112     -0.4498344123     3.6885488767
C     2.325503904     -1.628680481     2.858522371
C     2.6853670999     0.7683304737     3.0544259122
C     0.7195784362     0.9235285379     4.347119966
C     1.5177500805     1.6384157928     3.4795095425
C     -0.6724466337     -0.8991565784     4.1212446059
C     -0.6156457422     0.5333232923     3.8866930353
C     0.0957524677     -2.6014158012     2.7084873362
C     -1.0795002409     -1.728780014     3.0934916485
C     0.270087253     -2.8815497819     1.3353878468
C     2.355728336     -1.5356582308     1.4181127748
C     1.423330838     -2.3572097383     0.6316475017
C     2.7992936531     0.8856416437     1.6514601273
C     2.738565723     -0.2671743725     0.7890204415
C     1.0027170576     2.234089035     2.3141008704
C     1.974914496     2.0009660624     1.2588474462
C     -1.1433279114     1.0575947711     2.6515969766
C     -0.3641223065     2.0685908317     1.9303192759
C     -1.8958055013     -1.2252531194     2.0360348861
C     -1.9733244733     0.1996866715     1.7927517286
C     -0.9557799025     -3.0318034406     0.635543481
C     -2.0534108373     -2.1195929652     0.9541336707
C     -0.9405410738     -3.1867611746     -0.7422021735
C     1.3219654357     -2.187846807     -0.8167112188
C     0.1668307298     -2.7601141533     -1.500112077
C     2.4845290565     -0.0106489326     -0.6106063129
C     1.957027725     -1.0741908189     -1.4710349536
C     1.6638457505     2.2397748393     -0.0529507267
C     2.2438486248     1.3530072458     -1.0469616247
C     -0.6985079391     2.427834365     0.5754835325
C     0.3653571779     2.8301385918     -0.3274476195
C     -2.4163961892     0.6575203718     0.47173312
C     -1.9230183026     1.9300995148     -0.0338180027
C     -2.6676326896     -1.7071975045     -0.2583821586
C     -2.1057583198     -2.4913770116     -1.3042276166
C     -2.9107712283     -0.3120959545     -0.5113389054
C     -0.3524628769     -2.2089087388     -2.7589151825
C     -1.8063026668     -1.9981357436     -2.5789957873
C     1.5855143021     -0.7414618176     -2.8293625428
C     0.3550757229     -1.2693317723     -3.4467463709
C     1.9315295481     1.6421761058     -2.3960709659
C     1.7065728795     0.5598301538     -3.3118798906
C     0.0850869117     3.1304091743     -1.6782154113
C     0.9766525336     2.6387577617     -2.7147873839
C     -2.1975272771     2.3074711717     -1.3867350272
C     -1.2267544165     3.0179763481     -2.166312202
C     -2.9947075984     0.0439079973     -1.9012290146
C     -2.3796411479     -0.7906540394     -2.9615754384
C     -2.7866168586     1.369137771     -2.2934353633
C     -0.3207618664     -0.1806483294     -4.1921876734
C     0.5886009337     0.9106633194     -4.2053483339
C     0.1808094691     2.2250307228     -3.8708538622
C     -1.1764280005     2.4633519428     -3.5415800118
C     -1.7005134922     0.0775360583     -3.905322697
C     -2.1043547226     1.4220804305     -3.5965257775


