58

 C     1.4542173293     -0.2552518912     4.838964247
C     0.6653171423     -1.3621668612     4.4715839159
C     1.2547699797     -2.0583879098     3.3580114223
C     2.5538948892     -0.2276564568     3.886220466
C     2.4142608     -1.3377884175     2.929615384
C     2.6634024423     1.0597737857     3.3424549536
C     0.6539065682     0.9169211904     4.5175854837
C     1.4222837512     1.807439956     3.7548778743
C     -0.6170584046     -0.9307742113     3.9800186903
C     -0.6355127745     0.4994348276     3.943052997
C     0.2268089418     -2.4177859089     2.4049926991
C     -0.973385044     -1.6947734103     2.8038163266
C     0.5338104076     -2.5098010132     1.0551005003
C     2.6060111249     -1.1394362804     1.5250317605
C     1.8329921314     -1.9912116553     0.6114213278
C     2.8407170482     1.2648487279     1.9679725709
C     2.9759782844     0.1811435579     1.0197728469
C     0.9065883434     2.4299932205     2.6106824601
C     1.9389235342     2.3500219628     1.5746028208
C     -1.1754445754     1.1385620703     2.7816067525
C     -0.4556967666     2.2484294299     2.1601160155
C     -1.7672963419     -1.1235842773     1.8197566534
C     -2.0077767772     0.3225178328     1.8877062913
C     -0.580664478     -2.4567432101     0.1093875882
C     -1.752111034     -1.7510483324     0.4986584752
C     -0.2927342725     -2.6343628501     -1.3087277241
C     1.9634130422     -1.7764531856     -0.7578988069
C     1.015890867     -2.3049583029     -1.7380118586
C     2.7712767945     0.4976737552     -0.3843293573
C     2.5066365272     -0.563880414     -1.2909501143
C     1.6466077647     2.5849169815     0.2690945554
C     2.2340183904     1.7753710058     -0.7742372378
C     -0.7570487382     2.6231832741     0.7881310387
C     0.3039748096     2.9380548028     -0.1328850916
C     -2.4964615292     0.9102337538     0.7241144877
C     -1.9395089236     2.1145356999     0.1865010962
C     -2.6399834422     -1.2203490474     -0.5287384397
C     -3.0320543064     0.1335768472     -0.3928824698
C     -1.3491710605     -2.5030334292     -2.2611621446
C     -2.5845700242     -1.7588129034     -1.8506399813
C     -1.0697697703     -2.2026922361     -3.6049388308
C     1.1926374981     -1.5825644093     -2.9690738993
C     1.9143690024     -0.3674832307     -2.5906940948
C     0.1802825173     -1.5483015771     -3.9290950403
C     1.4025104994     1.9019030084     -1.9154771317
C     0.1898909345     2.6324011349     -1.5125243856
C     1.3260551935     0.8876193943     -2.9165932576
C     -2.1534814435     2.0830430377     -1.2389502857
C     -3.059808703     0.9791648834     -1.5559890092
C     -1.0638104968     2.3273056841     -2.1224425427
C     -3.0450029835     -1.012785942     -2.9485702432
C     -2.1670343494     -1.3473484265     -4.0787747587
C     -3.1029527334     0.4295623172     -2.8380782441
C     -0.1887537242     -0.2498079011     -4.5036828185
C     0.1945596046     0.8987067303     -3.8153276179
C     -1.0556710788     1.6518621221     -3.3998767945
C     -1.6548777133     -0.2016928994     -4.614440169
C     -2.1683646772     0.9427355876     -3.8458593402


