58

 C     1.4260497346     -0.1068331449     4.5543019852
C     0.6585732718     -1.2482527066     4.605758007
C     1.2767586616     -2.3108308269     3.8234666185
C     2.5385721596     -0.3700977408     3.625673857
C     2.4955652449     -1.7853486699     3.2545692743
C     2.4606613825     0.5816065717     2.5983281075
C     0.595047292     0.9411519333     3.9777822965
C     1.2822017528     1.4631840008     2.8719028655
C     -0.6746025398     -0.9758733306     4.0572903532
C     -0.7417441667     0.4293020917     3.7258696126
C     0.2668916843     -2.8350845388     2.9614148921
C     -0.9233626551     -1.9294250519     3.0477581128
C     0.6317084968     -3.3019268178     1.7012458266
C     2.798179518     -2.130382734     1.9266360087
C     1.9741449603     -3.0839985615     1.2704310708
C     2.7427383641     0.2589735027     1.2069975844
C     3.0397246097     -1.0857970685     0.9108116363
C     2.2112972383     1.1275311362     0.1435213679
C     0.5738592805     2.0223928598     1.8004755239
C     1.2725474763     2.1741279961     0.5129496522
C     -1.4159880988     0.8257037966     2.5619393928
C     -0.8556860947     1.902125269     1.7616123493
C     -1.6348592467     -1.5598530995     1.8634114009
C     -2.0856417389     -0.1934562163     1.757296189
C     -0.2327987551     -3.080240086     0.5289456835
C     -1.3754627467     -2.2647703742     0.5922664846
C     1.9340241501     -2.7967589865     -0.1449485846
C     2.6257040828     -1.5867882225     -0.3877279902
C     0.6163094728     -2.942737149     -0.6442807236
C     2.1615449421     0.6942168372     -1.2390469078
C     2.1727313405     -0.7471283984     -1.4254216618
C     1.5704887521     1.5388885844     -2.2743045814
C     0.6170677067     2.8907122174     -0.4705606526
C     0.925567916     2.7517685391     -1.8691522902
C     -1.550042658     2.3579800599     0.5804675734
C     -0.83152009     3.1575791696     -0.3553692384
C     -2.6790758059     0.2227701738     0.5453686276
C     -2.6373852353     1.5816668689     0.0761921072
C     -1.9042918313     -1.7349586744     -0.6763804359
C     -2.7707540695     -0.6160254277     -0.6165013468
C     0.2273575832     -2.2408384241     -1.7880658073
C     1.1871819311     -1.2938971797     -2.3467666747
C     -1.1771332407     -1.906274155     -1.925464063
C     1.0768710966     0.9144559965     -3.4852399049
C     0.7724223392     -0.492010898     -3.4100793509
C     0.022908586     1.5111365302     -4.2860525691
C     -0.2166385831     3.2352473007     -2.6004060155
C     -1.320312226     3.3400439943     -1.6509310276
C     -0.6713055356     2.6339867096     -3.7686855949
C     -3.0066063864     1.6135097408     -1.3219933293
C     -3.0690361884     0.2251609343     -1.7622528481
C     -2.4319617353     2.5791960937     -2.1820515346
C     -2.0933041207     2.2280759555     -3.5379369801
C     -1.5644284135     -1.1650470321     -3.0690016313
C     -0.5510105612     -0.6819550369     -3.9816180444
C     -0.9556179688     0.4970978333     -4.6258455956
C     -2.5876877728     -0.1358016959     -3.023751706
C     -2.1964425724     0.9027995311     -3.9748473808


