58

 C     1.1709291009     0.1927559638     4.0473449657
C     2.3972277811     0.0263430569     3.4217464106
C     2.4721504215     -1.3453115599     2.9437847879
C     0.3407566831     -1.040374907     3.7717173792
C     1.134435612     -1.9175210843     3.0227940327
C     -0.9169106969     -0.5956882614     3.2864784565
C     0.3874814284     1.3069851872     3.7766670682
C     -0.9550934607     0.8293160631     3.4680594893
C     0.7497403508     2.2557343057     2.7655437646
C     2.7964093911     0.9049602488     2.340727459
C     1.9661996973     2.0420194856     1.9948794069
C     3.1411872321     -1.3471394345     1.7259220757
C     3.3267686588     0.0541657705     1.3037820887
C     2.783618116     -2.320344788     0.7705738703
C     0.5581392255     -2.6138944499     1.8814824448
C     1.4673038034     -3.0092026347     0.8771570361
C     -1.544535852     -1.1922384133     2.1243868407
C     -0.8445431712     -2.3093116762     1.4999724806
C     -2.457158425     -0.3741501923     1.3426150185
C     -1.5079052024     1.6427900904     2.4919235499
C     -0.4691649819     2.588910905     2.0696898455
C     -2.4154081567     1.095733636     1.5478067688
C     -0.4795398771     3.0445136446     0.7293712394
C     1.9161952569     2.3994473039     0.6104614532
C     0.7432082137     2.9870120549     0.0024617927
C     3.2127544597     0.3892039854     -0.0901557394
C     2.55227232     1.6080730175     -0.4022547566
C     2.9892277093     -2.0439334781     -0.5749270397
C     3.1267441921     -0.6872990604     -1.0525597969
C     1.0243163885     -3.2744701573     -0.4738227722
C     1.9871505559     -2.7113464237     -1.3760631455
C     -1.2582648414     -2.683210233     0.1991243426
C     -0.3212157022     -3.1507072281     -0.7882142873
C     -2.9367078319     -0.8492746809     0.0532932194
C     -2.323028248     -2.0015669982     -0.4971789495
C     -3.5443360762     0.0889128507     -0.9041989204
C     -2.7318631379     1.9594293301     0.4766084521
C     -1.6928052224     2.8841818653     -0.0037582253
C     -3.4561723866     1.5114531179     -0.6299710348
C     -1.7345532333     2.8649554156     -1.4396546773
C     -2.9355693435     2.1498871231     -1.7971420484
C     0.7116799963     2.6567138739     -1.4040579102
C     1.7933066165     1.7492615703     -1.6352515561
C     -0.5055612484     2.5863570709     -2.1484896071
C     2.3031453578     -0.575105775     -2.2137840465
C     1.5859022677     -1.859703969     -2.4068248867
C     1.6426982521     0.6482380631     -2.5286387858
C     -0.7274754864     -2.5938122585     -2.0710248078
C     -2.065390471     -2.1023519782     -1.9335077989
C     0.2382345631     -1.8784198971     -2.8733596784
C     -3.429572714     -0.1012549974     -2.2983119324
C     -2.9665389704     1.2026942115     -2.846951578
C     -2.5398040794     -1.1039854706     -2.7992722212
C     -0.5553323661     1.6167687315     -3.2357234087
C     0.4324212705     0.5929895379     -3.3004474544
C     -0.2314470415     -0.7133973595     -3.5614723115
C     -1.8125712301     0.9807183448     -3.5741296554
C     -1.5931354677     -0.4655084393     -3.685226717


