58

 C     1.5343510313     0.1253887395     4.1561172641
C     0.7447958558     -1.0349029352     3.9289035458
C     1.3582403671     -1.778238589     2.8812137257
C     2.6158159997     0.1366881731     3.2085322315
C     2.569771251     -1.0665376359     2.4449695318
C     2.6234792318     1.3970157644     2.5097402891
C     0.7260034965     1.2615181593     3.8663420629
C     1.412994036     2.1282122019     2.9376485996
C     -0.6204121628     -0.5917594572     3.671135654
C     -0.6324072909     0.8577063667     3.6127983226
C     -1.4288893516     -1.3134519057     2.7934635914
C     0.5601500995     -2.5047027854     1.9144772429
C     -0.859940984     -2.378473787     1.9657203074
C     1.1232210477     -2.7565298134     0.6424030093
C     2.9409806434     -1.0602640601     1.0644712272
C     2.3349615756     -2.0400411224     0.2017462355
C     2.9970344518     1.4244761869     1.1718694449
C     3.2772315249     0.1959370292     0.4577723076
C     2.3101401203     2.2964270665     0.2297281141
C     0.6500753305     2.7824894856     1.9831449147
C     1.1469827818     2.9547435774     0.614773354
C     -1.4220898701     1.5271281159     2.6206858188
C     -0.7844504248     2.5815442072     1.8951093613
C     -2.4500887687     -0.6678798592     2.0393608877
C     -2.4819479463     0.7696478613     1.9318419007
C     -1.6575860082     -2.488404317     0.7841526877
C     -2.7295451583     -1.5160134811     0.8877493168
C     0.3169778055     -2.9933866916     -0.5044398009
C     -1.0984334145     -2.8029919673     -0.4924366126
C     2.2998067598     -1.9083334181     -1.1981934266
C     1.1015711945     -2.6067794803     -1.6674518584
C     2.9965864265     0.4162455832     -0.9383539313
C     2.3661082976     1.7075162295     -1.0779976892
C     2.6409151698     -0.6439190915     -1.8149853001
C     1.3469763366     1.9263183297     -2.0545688228
C     0.0276609711     3.0109235407     -0.2883875661
C     -1.1683303224     2.8590730324     0.530198225
C     0.0858694299     2.5353211359     -1.6249524514
C     -3.0164223471     1.2803017921     0.7204416825
C     -2.3143744457     2.3239537925     -0.0132247235
C     -3.3124154449     -0.9964061606     -0.2490495719
C     -3.5797182325     0.4090148963     -0.2650688159
C     -1.7585721845     -2.3072274355     -1.7290721474
C     -2.856361636     -1.4127494263     -1.5828095898
C     0.4933961243     -2.3040635264     -2.8576521866
C     -0.9715895556     -2.1799003899     -2.9329468403
C     1.9719810467     -0.2800544671     -3.0097542806
C     1.333544129     1.0001829554     -3.1319665484
C     1.0747515892     -1.2375617886     -3.6647280016
C     -1.2049099232     -1.113342228     -3.8506305482
C     0.1180013715     0.7860808935     -3.9039068985
C     0.057954455     -0.5876372759     -4.3516536189
C     -1.1760110004     2.073432891     -2.2379881806
C     -2.3445544012     2.0000391486     -1.4279451625
C     -3.2247882936     0.873484197     -1.5579844187
C     -2.9282518084     -0.2297440437     -2.4208582968
C     -1.122669491     1.1783381104     -3.3750286346
C     -2.0135695052     -0.0178522738     -3.4424749522


