58

 C     0.9242584112     0.103043124     4.082958795
C     2.1002432175     -0.2096737251     3.4644989385
C     2.0869177696     -1.6304672659     3.0549622343
C     0.0645663715     -1.1168244212     3.9824638714
C     0.7439692624     -2.0935399098     3.1648565912
C     -1.1651484764     -0.6754025968     3.5938775683
C     0.1537435407     1.2552027439     3.6533646354
C     -1.1887993964     0.8008132733     3.5703449833
C     0.6655621312     2.1219821324     2.6116367189
C     2.6390052218     0.562685822     2.3659561056
C     1.94440244     1.7627878624     1.9446062919
C     2.7959986929     -1.7305759686     1.859135226
C     3.1619339421     -0.3569211563     1.4112544754
C     2.34291501     -2.6521102385     0.9181719403
C     0.0871157891     -2.659561929     1.9939541391
C     0.9675620872     -3.0928119173     0.9681047467
C     -1.8446958074     -1.1507783467     2.4031629285
C     -1.235442114     -2.1391738805     1.5757719144
C     -2.0457186459     1.1860990699     2.5349864084
C     -2.5124378607     -0.0196136669     1.8287890121
C     -0.3212806873     2.7666893269     1.8071280206
C     -1.6922331376     2.2954382991     1.7707825035
C     -0.0420757953     3.2538741208     0.4757786378
C     2.121750528     2.1195344604     0.5834841393
C     1.1611201107     2.9323733503     -0.1336223077
C     3.1825736429     -0.0583140184     0.0098124406
C     2.7171413923     1.2219545297     -0.3796463974
C     2.6526345142     -2.4374685808     -0.4634842885
C     3.0049732398     -1.1230793799     -0.9404635625
C     0.5221887017     -3.2304679712     -0.4122279284
C     1.6534291261     -2.9894164116     -1.284730473
C     -1.6438554639     -2.1619613594     0.1704627624
C     -0.7732489781     -2.8274531224     -0.8014240882
C     -2.8659871395     0.0272260369     0.4720511251
C     -2.6028563776     -1.1695273041     -0.3190684047
C     -2.2170818589     2.4261364679     0.4424833312
C     -1.2548932173     3.17924958     -0.3295888464
C     -2.9287341881     1.3536697585     -0.1787664151
C     -1.1898067703     3.0412842359     -1.7142482786
C     1.1992858448     2.5634543403     -1.5422702962
C     2.1009701141     1.4458860896     -1.6735991871
C     0.0767984144     2.665506568     -2.3440901811
C     2.3016569915     -0.909083208     -2.1778178475
C     1.5008627451     -2.1137733861     -2.4085638366
C     1.7997835041     0.3737623877     -2.5662165372
C     -0.9143359423     -2.4860280442     -2.2056289195
C     0.2658214449     -1.9801340727     -2.9681917081
C     -2.8450062701     -1.057417085     -1.7364703525
C     -1.9968394508     -1.7744307115     -2.650910527
C     -3.0417927109     1.4061425763     -1.6048301551
C     -2.2176622035     2.3133610383     -2.3627982707
C     -3.147581347     0.1932083357     -2.3391678984
C     -0.2106320543     1.6579892458     -3.3695262218
C     0.5820524771     0.458054105     -3.4212815693
C     -0.1279470351     -0.7771815411     -3.6723508201
C     -1.5494700099     -0.799790151     -3.6878898753
C     -1.6419832809     1.5905034297     -3.4745319847
C     -2.3036904995     0.3450690795     -3.5514333265


