58

 C     1.3051510926     -0.20139874     3.8758118222
C     2.402573836     -0.4877665511     3.1064037552
C     2.2811113248     -1.8473822355     2.564271295
C     0.4329832149     -1.4171428883     3.8409439765
C     1.0066864313     -2.3807111852     2.9164564935
C     -0.844045326     -0.96888981     3.6242047423
C     0.5026072819     0.965497065     3.5556781114
C     -0.8371578789     0.5111156769     3.5149676438
C     0.9247220606     1.9234133876     2.5810164379
C     2.8301892447     0.4011327027     2.0558887136
C     2.2008658203     1.6701722925     1.9029227863
C     2.706832617     -1.7758226722     1.2247001777
C     3.0612633075     -0.3949393266     0.8841174898
C     2.0212480621     -2.5172140472     0.2723446158
C     0.1867398936     -2.9832855066     1.8990145913
C     0.8224890943     -3.2302070058     0.631133549
C     -1.6956119934     -1.5013359486     2.6121140282
C     -1.2402354507     -2.6024202739     1.8150594501
C     -1.697090644     0.8516033403     2.4675403697
C     -2.3124564378     -0.3678245783     1.9547163301
C     -0.1167352029     2.5937110532     1.7926922841
C     -1.4084578614     1.943798047     1.6047171712
C     0.3186284508     3.4796156342     0.7552015458
C     2.4391647529     2.2794105683     0.6390928983
C     1.6329017307     3.3425056371     0.2252997335
C     2.8591827401     0.1073156228     -0.4462967592
C     2.7375569194     1.5009671983     -0.5498166843
C     1.9175561107     -2.0727259011     -1.1136015685
C     2.2520188196     -0.7435895556     -1.4871762751
C     0.0843674801     -3.4298417341     -0.5880822915
C     0.8248748342     -2.7848219923     -1.6964718819
C     -1.9256386836     -2.7717919062     0.5905872614
C     -1.3106072761     -3.3857525309     -0.5786430418
C     -2.7953530098     -0.4293196942     0.6368163903
C     -2.8164266516     -1.7447438222     0.0652068582
C     -2.0890893877     1.9695364743     0.3055875106
C     -2.7057097317     0.759589556     -0.2224857961
C     -0.5266289299     3.757613235     -0.3551995838
C     -1.6856162471     3.0012014218     -0.6200189717
C     1.5862917208     3.3950902162     -1.2418404476
C     2.1087544677     2.1541143284     -1.7054328742
C     0.3002647715     3.8081217498     -1.6029884798
C     1.4993194257     -0.1130650888     -2.5854663975
C     1.3961435974     1.365906948     -2.6687544452
C     0.1537140234     -2.2314962014     -2.7791193933
C     0.4957261868     -0.8945408328     -3.2204472692
C     -1.9981596184     -2.9178749317     -1.747278217
C     -2.9218315271     -1.9101526693     -1.3352067976
C     -1.2876629055     -2.4006129102     -2.8630800225
C     -2.7251473593     0.5412854619     -1.6801345516
C     -0.7787955414     -0.2742368896     -3.596167264
C     -2.7806284098     -0.7748278994     -2.2060886786
C     -1.8520590824     -1.1656699978     -3.2638032099
C     -1.7065788372     2.7501734529     -2.0445603735
C     -0.3816119132     3.1243192003     -2.5876152925
C     0.1653991854     1.9390377244     -3.177485695
C     -2.0603762211     1.5164806007     -2.5330369273
C     -0.9576163609     1.0686767412     -3.4182088325


