58

 C     1.4783355614     -0.0455688364     3.9712601147
C     0.6263519793     -1.13948662     3.7330904872
C     1.0892296887     -1.9043086364     2.5858984829
C     2.4631380763     -0.0434211725     2.9334459922
C     2.2756566988     -1.2231685153     2.1039617412
C     2.3884006035     1.1796167933     2.2430404466
C     0.6460516275     1.1206477379     3.7822544382
C     1.1971915472     1.9051506318     2.7470048905
C     -0.747137442     -0.724700536     3.7845026159
C     -0.7408370961     0.7355145316     3.6809425387
C     -1.6676865733     -1.4624129193     3.0491475696
C     0.1719966381     -2.4886742931     1.6639084094
C     -1.2207857175     -2.3906362882     1.9700935904
C     0.5791707822     -2.6738699893     0.2748196529
C     2.5991945306     -1.2357024272     0.7374715871
C     1.9079328335     -2.2049529864     -0.1175192321
C     2.7866634962     1.2460645454     0.8744663234
C     3.1020064195     0.0151983091     0.1544426983
C     2.2642992614     2.3343564919     0.1458321913
C     0.3718422923     2.5886870784     1.8131380664
C     1.0453150537     3.0021642758     0.619849304
C     -1.6282888982     1.3837351327     2.7618345207
C     -1.0753520493     2.3314778269     1.7757209618
C     -2.8230008142     -0.8100795151     2.6072506546
C     -2.8018227442     0.6132016471     2.4041103721
C     -2.1965499047     -2.361062859     0.9314556864
C     -3.2482300792     -1.4575955398     1.3613555385
C     -0.4454598145     -2.8293864106     -0.7501105058
C     -1.8246691127     -2.4304158378     -0.4425582602
C     -0.0500426056     -2.7879537225     -2.1270252273
C     2.2362025456     -2.18647271     -1.4984176976
C     1.3013772976     -2.5836588022     -2.4746084281
C     3.2039010688     0.0994682606     -1.256215626
C     2.930089601     -1.0372394903     -2.044671161
C     2.2629290007     2.352302461     -1.3148285933
C     2.7381214909     1.2479352842     -2.0094501912
C     0.3252600787     3.3292037264     -0.5365788655
C     1.0629603813     2.9790082124     -1.7378712291
C     -1.7398265122     2.4786158954     0.4778836322
C     -1.0233423235     2.9346718276     -0.6658730139
C     -3.4263190404     0.8165074806     1.1375486269
C     -3.7134252189     -0.4959258655     0.5078845104
C     -2.8588461411     1.6244263435     0.1675778672
C     -2.5025381706     -1.5275689077     -1.3779539911
C     -3.2956594107     -0.4627570442     -0.8471950183
C     -2.8919250684     0.8898521088     -1.1228014469
C     -0.8346251333     -2.0394144886     -3.0924975927
C     -1.8638966133     -1.2323251846     -2.6218471511
C     1.3632825627     -1.5975020416     -3.6012352163
C     2.352430711     -0.6491397389     -3.3135681953
C     2.0116909328     0.7427599792     -3.1895737072
C     0.0617182288     -1.2216945758     -3.9038108442
C     0.185128192     2.2966934754     -2.6041370233
C     -1.1336504686     2.3140369453     -1.9849930772
C     -1.9977866856     1.2120822126     -2.1771231263
C     -1.5925739148     0.1437826948     -3.0432753837
C     0.6500318443     1.1719889541     -3.4068561528
C     -0.3336234733     0.1579450704     -3.7385975241


