58

 C     1.331373204     0.20197566     3.9832771932
C     2.4422011166     0.0681405385     3.1647311297
C     2.4514167116     -1.3062675993     2.6395733849
C     0.4962049144     -1.0224568378     3.7896412584
C     1.2002571238     -1.9264756101     2.9350162785
C     -0.8065613322     -0.6035356383     3.4853308426
C     0.5065278364     1.3196489859     3.8541686684
C     -0.8570797391     0.8386301235     3.6824247563
C     0.7468625021     2.2893957479     2.8289369183
C     2.6556619876     0.9496628958     2.0523129723
C     1.7889651905     2.0759920817     1.8454876557
C     2.9409405733     -1.2839565077     1.3307366702
C     3.0401327072     0.1156610471     0.9197979617
C     2.4421280331     -2.227085749     0.4256631165
C     0.4905893504     -2.6316477967     1.9033277937
C     1.247446335     -2.9608487457     0.7372418366
C     -1.5510134493     -1.214635025     2.3991893343
C     -0.9419130592     -2.3618717897     1.7260403229
C     -2.5054998087     -0.3704264595     1.6811009795
C     -1.5210919528     1.6614483259     2.7740541469
C     -0.5606378002     2.6909168868     2.3584040195
C     -2.4365943705     1.0952933871     1.8137992876
C     -0.6961577991     3.2689053194     1.121151623
C     1.5663789136     2.5048187912     0.4482136897
C     0.398791895     3.2619241994     0.1642956688
C     2.8296159668     0.4790792682     -0.4279074094
C     2.1859464087     1.7692431095     -0.6726893422
C     2.4692384549     -1.9433747556     -0.9773761566
C     2.7412361784     -0.6138996274     -1.4320016245
C     0.6258571549     -3.2785780621     -0.5354727631
C     1.4356202385     -2.7397480031     -1.610245985
C     -1.5361173502     -2.8063792233     0.500329231
C     -0.7527828971     -3.275715974     -0.6403143022
C     -3.0537896199     -0.870718546     0.4640060689
C     -2.6418922165     -2.1155298992     -0.0258276467
C     -3.2411981807     -0.0268780415     -0.7239883332
C     -2.7259529513     1.8985648395     0.6723261701
C     -1.9004573963     3.0190608079     0.3871251944
C     -3.04937231     1.3182602173     -0.6324695573
C     -0.2153100016     3.2602222499     -1.1639482352
C     -1.6298033394     3.0722267977     -1.0180061172
C     -2.2997421258     2.0162582779     -1.6795957232
C     1.6803874297     1.9890056718     -1.9910620071
C     0.399581597     2.6359301615     -2.2125756224
C     2.26920034     -0.3051088404     -2.7500766066
C     1.8043247973     1.0046178915     -2.9958455853
C     0.8468307293     -2.3233030082     -2.8131285395
C     1.3817069827     -1.196239196     -3.4638022152
C     -1.3840052587     -2.784075759     -1.8778522185
C     -2.5424215404     -2.0704033015     -1.4908803147
C     -2.7955353198     -0.7614597233     -1.9205919547
C     -0.6167320865     -2.271462652     -2.9209133757
C     -1.6761728671     1.303034671     -2.7610129789
C     -0.3760878007     1.792090315     -3.1460327273
C     0.5477752473     0.931749387     -3.7695449901
C     0.2721434476     -0.4144685846     -3.9872520086
C     -1.9589997105     -0.1374152597     -2.9227082377
C     -0.9624210542     -0.9877914402     -3.5245815858


