58

 C     1.4475106472     -0.0405496361     3.9432969684
C     0.6629578035     -1.16733608     3.8048261608
C     1.2137974081     -1.9572240516     2.6798718474
C     2.5361574888     -0.0841907728     3.0101206814
C     2.4128921294     -1.2734916553     2.2196527156
C     2.5797664735     1.1607539852     2.3295088356
C     0.6252483973     1.1269701865     3.5873574359
C     1.2962330392     1.864860427     2.5879224961
C     -0.7180847194     -0.7254054889     3.7052404263
C     -0.7211176088     0.7249808542     3.4243028591
C     -1.5877804648     -1.5267994144     3.05037244
C     0.3342931658     -2.5811939186     1.777380124
C     -1.0669797033     -2.6293393696     2.2005282337
C     0.6265968633     -2.586141121     0.3326281108
C     2.7397680518     -1.2498437707     0.8375017472
C     1.8926871984     -1.9878653266     -0.1086086077
C     3.1133467487     1.1749989568     1.0632250743
C     3.3710733029     -0.0506752817     0.3555992918
C     2.6674956306     2.1501773541     0.0924607542
C     0.5769282267     2.394586774     1.4836867414
C     1.3707908678     2.7248824498     0.2758380608
C     -1.5027887655     1.2155080862     2.3353789037
C     -0.857334602     2.1154936251     1.3813711868
C     -2.7528152735     -0.9713447553     2.3920902282
C     -2.6893071521     0.4040561467     1.9371196652
C     -2.0599605535     -2.9027335739     1.2990120044
C     -3.2236620612     -2.0003599375     1.5299307746
C     -0.4736558894     -2.7167328176     -0.6147368427
C     -1.8083937613     -2.949721855     -0.121582515
C     -0.3775829986     -2.0919909429     -1.9299884392
C     2.0537251312     -1.6952941224     -1.4818437034
C     0.9239077543     -1.7761879516     -2.3964599307
C     3.4248225417     0.2803492442     -1.0402543277
C     3.117568753     1.7047133026     -1.206030154
C     2.9337590864     -0.6414466346     -1.967258409
C     2.4725365211     2.1598977053     -2.3678915634
C     0.68429697     3.0800442487     -0.9270062495
C     1.2902344994     2.9385015291     -2.187842472
C     -1.4943138091     2.2862103189     0.0707384132
C     -0.7380873045     2.7539369381     -1.0440433219
C     -3.3256790984     0.6784681914     0.6905438229
C     -2.6687377398     1.5699488145     -0.2536986149
C     -3.7644751322     -1.7027777496     0.2976203805
C     -2.9142136174     -2.3464117218     -0.7591377837
C     -3.9436747231     -0.3660910202     -0.077277655
C     -1.4839079962     -1.3161533229     -2.4793349037
C     -2.799809814     0.9960493213     -1.5820688984
C     -2.7473558825     -1.4254759215     -1.8194171414
C     -3.451576981     -0.2324920102     -1.4388564126
C     0.2560945682     2.4197007291     -3.1023337976
C     -0.9779726359     2.2968635796     -2.3887183232
C     -1.188788613     -0.054838106     -3.160741251
C     -1.7912831984     1.1476477371     -2.5705078833
C     1.1028824949     -0.8508906216     -3.4382586933
C     2.3697005961     -0.1373284654     -3.1931060718
C     2.1825157593     1.2077980557     -3.426545492
C     0.091091645     0.0851097168     -3.7718177356
C     0.7586603255     1.3758191195     -3.8397591805


