58

 C     1.3738986676     -0.1445898816     3.5928506259
C     2.5036565868     -0.3434312034     2.7546225713
C     2.334100303     -1.6390862947     2.0925905105
C     0.5164667033     -1.3182876032     3.4875983704
C     1.1472065964     -2.284714159     2.6802425485
C     -0.8036812855     -0.8945251619     3.2053833455
C     0.5704526955     1.0179334801     3.50104856
C     -0.7919323908     0.5689569597     3.1940244655
C     1.1035332438     2.1448916693     2.8558430536
C     2.986379799     0.7583782888     2.0310940189
C     2.3822812498     2.0204576264     2.249348278
C     3.2234460259     0.6453613096     0.5878466761
C     2.5987122631     -1.7727024712     0.7096164384
C     3.0026015167     -0.5763450348     -0.0741754052
C     1.8841082382     -2.8305852679     0.0090991819
C     0.3418893421     -3.1231595817     1.8966717736
C     0.8567843226     -3.5449627067     0.6436464348
C     -1.6025096344     -1.6413630986     2.265903745
C     -1.055302028     -2.8219395959     1.6920420395
C     -2.5373916404     -0.8940090291     1.4819468632
C     -1.5854716316     1.2840713757     2.2783178241
C     -2.5582823044     0.5186995652     1.5259498178
C     0.2665243486     2.9378601917     1.9523078275
C     -1.0628890393     2.5397054835     1.6791360666
C     2.3634569891     2.756545593     0.9917098067
C     2.8399661604     1.9114629378     -0.0382341467
C     1.1288655294     3.4214039521     0.8598611185
C     2.2033301315     1.9414178908     -1.331413534
C     2.5987105845     -0.4985093705     -1.4630692148
C     2.1672656613     0.7091649138     -2.0576248328
C     1.5180208949     -2.7075931341     -1.404071351
C     1.869093353     -1.5789154299     -2.1113503701
C     -0.2447884192     -3.7195244298     -0.2900816569
C     -1.4076548549     -3.2151955467     0.3096821994
C     0.1769701834     -3.2916438732     -1.5854121148
C     -2.9681344247     -1.3358679643     0.1406701416
C     -2.3385008869     -2.4577363745     -0.4868878544
C     -3.0702967385     0.9790243217     0.2430508854
C     -3.3449612149     -0.1792183202     -0.5963303854
C     -1.6198928127     2.9625365944     0.4018497672
C     -2.6181882771     2.1581602851     -0.3070812322
C     0.6024409031     3.594766122     -0.4279015712
C     1.1464151614     2.8674423915     -1.5503287611
C     -0.8090816717     3.5687861071     -0.5694517606
C     -2.3210289856     2.2208829116     -1.7493637876
C     0.0274421806     2.5259058616     -2.4564048437
C     -1.1473343784     3.0242870773     -1.8751656819
C     1.1055496135     0.405677419     -3.0376535572
C     0.9669210951     -1.0083949727     -3.1023696905
C     -0.0184020082     1.2806792583     -3.1789365035
C     -0.7381832726     -2.6891796732     -2.425944489
C     -2.0745036797     -2.3605522254     -1.9064849721
C     -0.3106658658     -1.5893047756     -3.2983268026
C     -3.0882054593     -0.1081200462     -1.9881299331
C     -2.4534881045     1.0952322585     -2.5382421599
C     -1.3157511933     0.6674304431     -3.3665702076
C     -2.5086605816     -1.2209492878     -2.6179670883
C     -1.4113075296     -0.7367157552     -3.4789810575


