58

 C     1.4785502379     0.059780345     3.993503665
C     0.7097592693     -1.1251866659     3.8329069754
C     1.3198674878     -1.9043158566     2.8299093123
C     2.4986319003     0.0914404517     2.9266562818
C     2.469552405     -1.1437795728     2.2681356115
C     2.3682601477     1.2790018664     2.1710803476
C     0.6672283304     1.1764660651     3.8382458731
C     1.3118059497     2.0537293508     2.874390605
C     -0.6806848454     -0.690692443     3.6086811475
C     -0.7169327575     0.7627224714     3.613252433
C     -1.4464806545     -1.3544787063     2.6691596581
C     0.5265497179     -2.7068208731     1.936329349
C     -0.8818768575     -2.4704777585     1.8878372177
C     1.138634097     -3.1330802519     0.7480578301
C     2.7394542327     -1.1991806836     0.8833964343
C     2.3717836205     -2.4409064967     0.2712821616
C     2.4237851387     1.2671616749     0.7304368583
C     2.7389090866     0.0144241576     0.0672398939
C     1.6988584288     2.3250529598     -0.0031827777
C     0.5200938184     2.8626242792     2.1492423631
C     0.8797886856     3.2140064748     0.7712225939
C     -1.5218263595     1.4874810935     2.6951756654
C     -0.9562922347     2.7368264386     2.2150880421
C     -2.3639267054     -0.6469112759     1.817949783
C     -2.4239539612     0.7750261094     1.7731971339
C     -1.576672922     -2.5586816738     0.6500411914
C     -2.5363247282     -1.4581622544     0.6298219633
C     0.3917492218     -3.4838898509     -0.4140720761
C     -0.9650934785     -3.0399483393     -0.5516437838
C     2.4721227955     -2.5892740113     -1.0827590246
C     1.3036824328     -3.3571173137     -1.5351986223
C     2.5568792975     -0.1188447977     -1.3950034902
C     2.6100474785     -1.4369693787     -1.9564121744
C     1.3555427378     2.1360321005     -1.4145518705
C     1.8017974888     0.9235272861     -2.1161646513
C     0.2015966857     2.8308471031     -1.9385725511
C     -0.2835922423     3.7880219329     0.2313658281
C     -1.4332823456     3.3320045863     1.0688388126
C     -0.6203709975     3.613173664     -1.086954011
C     -2.8449765793     1.3915940859     0.498155253
C     -2.4048202007     2.7345277065     0.1989308582
C     -1.9909102997     3.0601569154     -1.1285712851
C     -2.8974529899     -0.8854906203     -0.5600975683
C     -3.0903656751     0.5450106599     -0.6317285559
C     -1.4015137631     -2.4645078607     -1.8588368699
C     -2.348172795     -1.3941568256     -1.8208254217
C     0.9058059626     -2.8799921827     -2.7436178406
C     1.8288933163     -1.769152643     -3.1166485825
C     -0.4642298671     -2.4441209673     -2.9640749065
C     1.0734428478     0.5414078904     -3.2985414534
C     1.0589369078     -0.8141267966     -3.7189498564
C     -0.360244781     -1.2773047723     -3.7655729936
C     -0.7190413217     2.1238400218     -2.8203982405
C     -2.0509723507     2.1470201885     -2.1889038893
C     -2.7044762454     0.9198472202     -1.9722274865
C     -2.265335688     -0.259765279     -2.6957252435
C     -0.2948240815     1.0151444522     -3.4774716025
C     -1.1773619894     -0.1605634003     -3.5928242938


