58

 C     1.3819655347     -0.3780586986     4.7076457745
C     0.5241024896     -1.3914595187     4.410791499
C     1.0723922581     -2.2622176641     3.3560553376
C     2.5415678465     -0.5140443217     3.8048130737
C     2.3033962301     -1.6595539609     2.8985209257
C     2.7122056578     0.7265528807     3.2189202926
C     0.6757646184     0.8928112625     4.3796442115
C     1.530866921     1.6036938914     3.5654639898
C     -0.7682208431     -0.8692951255     3.9499261376
C     -0.6443480886     0.5769483547     3.8306744002
C     0.0472832351     -2.4732563021     2.4350205029
C     -1.1206507017     -1.6061305738     2.8278895182
C     0.3233389824     -2.616124027     1.0547455257
C     2.5272483168     -1.5390145975     1.49766051
C     1.6260977224     -2.2428379673     0.5703486513
C     2.9660562658     0.8880254215     1.8424945186
C     3.0558562711     -0.2616807858     0.9827230147
C     1.1107046567     2.2363575856     2.3653657709
C     2.1307434088     1.9731857013     1.3669441233
C     -1.1035093099     1.199460459     2.6347892158
C     -0.2456905986     2.1633329077     1.925749536
C     -1.8657329587     -1.0069396912     1.794265527
C     -1.9723264192     0.4247128647     1.7505123181
C     -0.8329093997     -2.5918920414     0.1592140985
C     -1.9939047609     -1.7676414743     0.5691578818
C     -0.6291404461     -2.7962402337     -1.1958402649
C     1.7643306107     -2.0754886586     -0.8736111865
C     0.7250200556     -2.5627414287     -1.7340487055
C     2.962051623     0.013763378     -0.3937776592
C     2.516554931     -0.971593684     -1.3622822879
C     1.8739324535     2.1662706071     0.007899226
C     2.5567960581     1.2947380686     -0.8927866265
C     -0.5239754625     2.5084125636     0.5444770488
C     0.5805459023     2.6959911078     -0.3778980826
C     -2.4995712718     1.0205833557     0.548986423
C     -1.8393221459     2.2052291616     -0.0174217816
C     -2.8456686219     -1.2542963389     -0.3910212401
C     -3.2179142385     0.1631160694     -0.3302255634
C     -1.6026337578     -2.3844377814     -2.1948847849
C     -2.7387549733     -1.6362683346     -1.7958679751
C     0.5465099326     -2.0357154326     -3.0244740051
C     -0.88165401     -1.9357312573     -3.3313413746
C     2.1387747007     -0.2884157681     -2.574918862
C     2.0995778348     1.1323565719     -2.247075421
C     1.1631588505     -0.8190297682     -3.4226230437
C     0.3134990717     2.7602963905     -1.7776364085
C     1.0762482307     1.922645764     -2.7280445121
C     -2.1047464481     2.5439618882     -1.3731465279
C     -0.9961056061     2.8565614023     -2.2351340456
C     -3.4936837808     0.5623186793     -1.6648223243
C     -3.1682274688     -0.5520874941     -2.5880180423
C     -3.0048099114     1.7478997633     -2.1761010439
C     -1.1588076227     -0.7027655754     -3.9799236186
C     0.1226525178     0.041006779     -4.0164617404
C     0.1273314975     1.4041850083     -3.7163725447
C     -1.1322177933     2.0825766476     -3.4751274144
C     -2.3740798765     -0.0263440821     -3.6523715127
C     -2.3379681498     1.4143080419     -3.4574404425


