58

 C     1.6095158984     -0.0388139205     3.9171035743
C     0.7556613367     -1.1610581697     3.7931568525
C     1.17120271     -1.9556106599     2.6497175422
C     2.5495690125     -0.0670804435     2.8537188983
C     2.3103279905     -1.2700352189     2.086052398
C     2.3788694123     1.130422486     2.0949874786
C     0.7508281644     1.1086970961     3.7220828069
C     1.209920566     1.8474452764     2.5971441563
C     -0.6262386246     -0.7588171941     3.9316983158
C     -0.6333567716     0.7154644065     3.8258320634
C     -1.5759190998     -1.487860473     3.258593643
C     0.2007968363     -2.5589085644     1.8065071595
C     -1.16354903     -2.5200635709     2.282399309
C     0.4441565762     -2.6298828108     0.3587624055
C     2.5560801014     -1.2996208124     0.701112367
C     1.7068407861     -2.1249242037     -0.1446672937
C     2.715451656     1.1649107934     0.7331651689
C     3.1209438409     -0.089068549     0.1060238341
C     2.0617573798     2.1480464045     -0.1085321709
C     0.2838836846     2.3849208672     1.646877706
C     0.7280647731     2.5991839369     0.2729335567
C     -1.5500783961     1.3130385321     2.9703432973
C     -1.104908037     2.1917225401     1.9055262894
C     -2.7673655566     -0.8292002805     2.7105659607
C     -2.706411091     0.55425467     2.4755610894
C     -2.2001923583     -2.6614572341     1.3634271908
C     -3.2545959349     -1.6721569932     1.6607826383
C     -0.6813380504     -2.6797211378     -0.5732610473
C     -2.0002347888     -2.7273966727     -0.0479003131
C     -0.5361110412     -2.1274084727     -1.9408084427
C     1.8846008473     -2.0014114699     -1.5630231115
C     0.7404451558     -1.9707569624     -2.4749164428
C     3.3744211248     -0.0882344531     -1.2754374728
C     2.8655913461     -1.1533826289     -2.0858967687
C     2.4584822258     2.1833217459     -1.489695109
C     3.2293122551     1.1120999576     -2.0286680494
C     1.5488986778     2.6433942121     -2.4866520291
C     -0.2601687807     2.7188064649     -0.7877336274
C     0.1879111911     2.7667793849     -2.1596481548
C     -2.0227287338     2.0334972867     0.80695602
C     -3.0579765162     1.0829488137     1.1695371268
C     -1.6116377831     2.2361936497     -0.5369398224
C     -3.7053016669     -1.1684182811     0.4618156852
C     -3.0503435613     -1.9017641242     -0.6339061107
C     -3.5878505441     0.2367912259     0.1759609342
C     -1.5835080866     -1.2220145505     -2.4519180641
C     -2.2522185189     1.4036513789     -1.5588594792
C     -2.7451776667     -1.0073919586     -1.6350248893
C     -3.0904767716     0.3558122357     -1.163904544
C     -0.558697002     2.0538062163     -3.1888993557
C     -1.2240974805     -0.1587671739     -3.2814957725
C     -1.5751526178     1.2082240553     -2.8128358658
C     1.044200626     -1.0356247421     -3.5659169127
C     2.3851075077     -0.5789815525     -3.363816916
C     2.6963371733     0.786732846     -3.3635740607
C     1.6849086999     1.7408292886     -3.6605712302
C     0.0567717626     -0.0847201812     -3.937587782
C     0.414775182     1.3095577284     -4.0162546199


