58

 C     1.3260794764     0.2088099753     3.9294927234
C     2.4856008331     0.0391867664     3.1564942922
C     2.3921309973     -1.2884926575     2.5157722409
C     0.4585794962     -0.9781334429     3.7249030902
C     1.1052692444     -1.8442021182     2.8076596328
C     -0.8656869751     -0.539700815     3.4643623121
C     0.5441619171     1.3427402573     3.7290690546
C     -0.8478335111     0.894387822     3.5261063875
C     0.8623957393     2.2951424402     2.715207954
C     2.8615585028     0.980210542     2.1724857054
C     2.0441665567     2.1470866979     1.9023098016
C     2.8479005687     -1.1943250784     1.2018423535
C     3.3238042209     0.1829475747     1.0306558477
C     2.1765602096     -1.8742671272     0.125023076
C     0.3605548661     -2.484652218     1.769038913
C     1.0024783793     -2.6517279917     0.4643676693
C     -1.6610679367     -1.1909696695     2.4811547084
C     -1.0934065182     -2.3661678148     1.81704008
C     -2.6071766133     -0.3749930079     1.7200976413
C     -1.4254080052     1.6465653859     2.5096679565
C     -0.4026125858     2.6102577633     2.0601187574
C     -2.3446781216     1.0483764729     1.5868585803
C     -0.4307931899     3.0394823122     0.7640224868
C     2.0065014596     2.6557703936     0.5182492834
C     0.789842422     3.180583525     -0.0015113748
C     3.3780627753     0.6974682444     -0.2180088315
C     2.8690407     2.053081605     -0.4805439074
C     2.3529025904     -1.348312428     -1.2413040398
C     3.0899523788     -0.1384794846     -1.3814295117
C     1.3459933236     -1.6581190635     -2.2841085576
C     0.182711639     -3.1121259563     -0.6172481191
C     0.3076164953     -2.5500428268     -1.9628217727
C     -1.8368722685     -2.951372576     0.7543946203
C     -1.1511894463     -3.4513724689     -0.4090233577
C     -3.3387184528     -1.0257237374     0.6669378557
C     -3.0424987891     -2.3622219006     0.3082473683
C     -3.664444688     -0.3165606371     -0.5376304313
C     -2.4668022911     1.6708301758     0.2634118359
C     -1.4994157531     2.6286006911     -0.131705513
C     -3.0909789311     0.9330334082     -0.7978877414
C     0.4171553014     3.0780148748     -1.4002974691
C     -0.9701251022     2.6540637007     -1.4674027267
C     2.5831381806     2.1239981125     -1.8454024237
C     2.7826845293     0.7784853977     -2.4310311979
C     1.3355160217     2.6101603957     -2.3508343647
C     1.0295524425     -0.673782004     -3.2878782047
C     1.7886714677     0.5344982265     -3.3506044463
C     0.8759477437     1.6781505929     -3.3618954791
C     -2.5095802652     0.8880349744     -2.1285806735
C     -1.4206422916     1.7056082505     -2.4603551113
C     -0.3441077097     -0.3072179386     -3.4922997552
C     -0.4185218767     1.1638982364     -3.3621144775
C     -1.0291739862     -2.4168247201     -2.5093883787
C     -1.9163170724     -3.0844108306     -1.6064278469
C     -3.074270278     -2.4490347594     -1.1804393625
C     -3.4510004423     -1.1867447192     -1.6928597577
C     -1.408270822     -1.145065269     -3.0929658939
C     -2.6149365457     -0.5044315745     -2.600991521


