58

 C     1.6490289693     -0.2305978278     4.2495827462
C     0.8315849983     -1.3303715344     4.3541922383
C     1.2721578448     -2.3630260158     3.4198241641
C     2.6332319393     -0.484979335     3.2145985068
C     2.3907476035     -1.841821354     2.6842634467
C     2.5555628019     0.5724911579     2.3015136332
C     0.8177982838     0.9061312225     3.8209006532
C     1.425749354     1.476542526     2.6957867229
C     -0.5392230082     -0.9511974318     4.0154583841
C     -0.549987884     0.478049537     3.6990149739
C     0.1191172081     -2.7744561593     2.7006224994
C     -1.0096650338     -1.852219809     3.0522049966
C     0.2550431508     -3.1393562992     1.3686053435
C     2.4782101469     -2.0521216197     1.280686406
C     1.4832628468     -2.8888413508     0.6764554161
C     2.8363998571     0.4039432652     0.9125250568
C     2.9614101683     -0.9568558637     0.4183491729
C     2.4513696897     1.4828216614     0.0185656229
C     0.653325914     2.0936202643     1.6906639377
C     1.3296016942     2.3558101733     0.4120863761
C     -1.3255977948     0.9359474235     2.6188403364
C     -0.7809988628     1.9620739037     1.7337204376
C     -1.9209477044     -1.4259872838     2.0387668436
C     -2.2535288001     -0.0090127599     1.9884123168
C     -0.8333656015     -2.9448262213     0.4174550952
C     -1.9757126518     -2.1740784811     0.7831744193
C     1.1466992003     -2.8017827534     -0.7355186761
C     -0.2959146991     -2.8412827798     -0.8965543136
C     2.8878047678     -1.1305040168     -0.9858757715
C     1.91333072     -2.0519059022     -1.5872462485
C     2.6743973555     1.3008829776     -1.3718921888
C     2.9247959316     -0.0171737133     -1.8318208973
C     1.8708743246     1.9727604644     -2.3864017237
C     0.6066408461     3.0192375092     -0.5723235919
C     0.9337422053     2.9140218276     -1.9886367326
C     -1.5544719014     2.4090508205     0.5840909816
C     -0.8597130491     3.1241157846     -0.4720010828
C     -3.0122616236     0.4533960942     0.8967125387
C     -2.7489318004     1.7436449406     0.250263085
C     -2.7277226728     -1.6490898282     -0.2990119372
C     -3.4249493235     -0.4348950407     -0.1185271526
C     -0.9480445958     -2.1181145729     -1.9593533184
C     -2.2524289746     -1.662281803     -1.6779779897
C     1.3210373936     -1.4103050122     -2.7573291507
C     2.0745767492     -0.2439883626     -3.0006726401
C     1.4818288486     0.9701804633     -3.3982232789
C     -0.1132853695     -1.3939592233     -2.9565824322
C     0.1584668056     0.9308920551     -3.8787172294
C     -0.6529408989     -0.2572400086     -3.6199517246
C     -0.2959866049     3.0436230273     -2.7251888595
C     -1.390087933     3.1958235275     -1.7639716817
C     -0.673906539     2.0721550349     -3.645683952
C     -3.1744366936     1.6471079581     -1.1515862506
C     -3.4880630499     0.2783379587     -1.3778219356
C     -2.7905514576     -0.4815557145     -2.352680707
C     -2.021658765     0.2030091921     -3.3174481721
C     -2.4923743288     2.3493760074     -2.1606992356
C     -2.031039997     1.6187812802     -3.307637487


