58

 C     1.6775137746     -0.1891791992     4.2889665967
C     0.816579476     -1.3371377423     4.3692039958
C     1.2244950648     -2.2947714856     3.4485072791
C     2.6098030074     -0.4046792065     3.2199051247
C     2.3541450444     -1.7192473217     2.6938909489
C     2.458587002     0.6905824929     2.2675970747
C     0.8387703325     0.8863280292     3.8843522492
C     1.4037914611     1.5560899263     2.7506115637
C     -0.5655552825     -0.9356341392     4.0109027198
C     -0.5672733635     0.4729374135     3.8007720188
C     0.0459776776     -2.6979052326     2.6812330246
C     -1.0655382813     -1.7903771608     2.9935439887
C     0.2181585991     -3.0614913478     1.3836245921
C     2.4534028109     -1.9599405462     1.3053353189
C     1.5210783363     -2.8894843904     0.7336851883
C     2.6212838181     0.5229097499     0.872104637
C     2.8481540086     -0.845338872     0.4106218618
C     2.0280489735     1.5042918553     -0.0444395817
C     0.5822436466     2.2505867999     1.857138333
C     1.0562490727     2.4417775151     0.4897856014
C     -1.3660382544     1.0250190292     2.7944065314
C     -0.8647115069     2.2155902379     2.0955725143
C     -1.8737912853     -1.2659370862     1.9313846263
C     -2.2197710547     0.1295198658     2.0073372619
C     -0.7856878065     -2.807402724     0.3570548898
C     -1.8225370061     -1.8812109022     0.5841884934
C     1.2949564981     -2.9482071098     -0.6524046757
C     -0.1388294746     -2.9056232087     -0.921290425
C     2.8183639463     -1.0582044232     -0.9596730613
C     2.1584198293     -2.2478443135     -1.5156849923
C     2.0801005887     1.2684427794     -1.4922428136
C     2.6179102304     0.0168908294     -1.9099586387
C     1.1237382406     1.9497116703     -2.4024985672
C     0.1796129739     3.1246971402     -0.4015913878
C     0.1795499684     2.8362726032     -1.8343919786
C     -1.6882598513     2.8002067328     1.1405919645
C     -1.1354677951     3.4632126103     0.0055909256
C     -2.9232291731     0.6970987005     0.9173922153
C     -2.8719098205     2.084169899     0.6825522363
C     -2.3769504288     -1.2019161858     -0.5991919342
C     -3.0670023335     0.0089238049     -0.3678047738
C     -0.6560108125     -2.3223997954     -2.1053193484
C     -1.8482823854     -1.464471499     -1.9568901275
C     1.7069435147     -1.9591937683     -2.7922095017
C     2.156675535     -0.5990756173     -3.1310754464
C     0.3155994472     -2.056960577     -3.1522339981
C     0.6921364287     1.2815263345     -3.6259594779
C     1.2155255605     -0.0108368752     -3.9325342748
C     0.0773634407     -0.979044019     -4.0615090349
C     -2.0714105723     -0.4671408943     -2.9611919652
C     -0.7111586075     1.1985757586     -3.9055352792
C     -1.066540881     -0.2387711246     -3.9688464341
C     -1.2068720458     2.8760103455     -2.2750268018
C     -1.9971879669     3.1852408046     -1.1340950911
C     -3.0246997871     2.319781666     -0.7236280769
C     -3.1879416164     1.0367912273     -1.3820178075
C     -1.6658971486     1.8627303623     -3.1493589296
C     -2.6066237768     0.8335105941     -2.619249361


