58

 C     1.2060961722     -0.0645810503     4.1172253757
C     2.4250273171     -0.361242973     3.5229071979
C     2.2977569989     -1.6635342902     2.7851650247
C     0.3647179197     -1.2566543944     3.9533119451
C     0.9833181692     -2.1231560186     2.9556364273
C     -0.9243682074     -0.838914987     3.7441981488
C     0.4366443003     1.0849180485     3.6655006759
C     -0.915220558     0.6375242764     3.6144382385
C     0.896362037     1.8948118648     2.5558075445
C     2.9823111987     0.534103715     2.6240706329
C     2.2517802235     1.662650046     2.1284032918
C     2.8911371025     -1.511924114     1.4943166829
C     3.4722546701     -0.2139223932     1.4480422327
C     2.2429131281     -2.0494268484     0.3289714371
C     0.2266257714     -2.5644866524     1.7883487755
C     0.9503591132     -2.7075252132     0.53169111
C     -1.7185742113     -1.3518169964     2.6894168134
C     -1.2116333916     -2.2860917343     1.728831126
C     -1.8096533599     1.0002729873     2.6180788015
C     -2.5200477964     -0.2239058347     2.2167676647
C     -0.0707077499     2.3676375068     1.5295361605
C     -1.4617063903     1.9442520207     1.5913447348
C     0.4306947504     2.8343942829     0.2349206809
C     2.5943207721     1.7817539365     0.7317555974
C     3.305694356     0.5757750559     0.3174679704
C     1.798518807     2.4736324131     -0.184602499
C     2.5230931078     -1.4024962004     -0.9487132486
C     3.0132928599     -0.0308459583     -0.9438409067
C     1.7577378136     -1.8045522528     -2.0933397409
C     0.1809487565     -2.9999096031     -0.6356806052
C     0.6874465831     -2.7154527654     -1.9127509565
C     -1.9492621079     -2.3833174165     0.4599705666
C     -1.2773935199     -2.8674539053     -0.678813614
C     -3.189642895     -0.2872912102     1.0478264023
C     -3.0681898944     -1.4967922798     0.215565556
C     -2.3274830044     1.9525142599     0.4025825091
C     -3.2903049387     0.887076749     0.2048847526
C     -0.5073838117     3.0901856057     -0.8092773396
C     -1.8584282063     2.5953032132     -0.7589983917
C     -0.0973282454     3.0272646895     -2.1858425111
C     2.0765071317     2.172310412     -1.5666403831
C     2.5774603264     0.8717300608     -1.9384205789
C     1.148669643     2.5552178126     -2.5723711873
C     1.3557598203     -0.8902417144     -3.1250470649
C     1.7968675567     0.4306978973     -3.1031397639
C     0.9496659086     1.4816233981     -3.5311542885
C     -0.4142182134     -2.327713955     -2.7774046231
C     -1.6273614111     -2.4309794994     -2.0252153859
C     -0.0664730663     -1.1652746854     -3.4694484143
C     -3.3678907486     -1.0750024436     -1.0781375033
C     -3.5316923722     0.3865038665     -1.0930936436
C     -2.6073842109     -1.4504812206     -2.2230195989
C     -2.1971946998     2.0979432581     -2.1122673169
C     -1.1230143596     2.346809289     -2.9747545654
C     -0.473762589     1.2753239767     -3.6739440457
C     -1.019438389     -0.06662318     -3.6097345679
C     -2.9092915213     0.8857294737     -2.2464225238
C     -2.2889324551     -0.2363483156     -2.9749087989


