58

 C     1.0947057663     0.049086086     4.0440275347
C     2.200699741     -0.2499218968     3.3006525954
C     2.1161746845     -1.6479487835     2.8172669691
C     0.2223177283     -1.161965259     3.9915635242
C     0.7974859403     -2.1147633916     3.0631673264
C     -1.0459667219     -0.7165430102     3.7819652296
C     0.2901702259     1.2147905262     3.7245829932
C     -1.0617906821     0.7705519385     3.7822565701
C     0.692211721     2.0989829221     2.6557196201
C     2.6431031119     0.5729079556     2.2029570676
C     1.927714312     1.774871346     1.8959652766
C     2.6846265354     -1.6826517813     1.5416599926
C     3.0607817155     -0.3158587345     1.1476194318
C     2.0930092227     -2.5026552848     0.583566878
C     0.0081392273     -2.6194462106     1.9522507757
C     0.7453952682     -2.9676331616     0.788886594
C     -1.8759955307     -1.1799737889     2.6896239481
C     -1.3691975213     -2.1206987362     1.7396622802
C     -2.0252409363     1.1813549276     2.8635674516
C     -2.6185949688     -0.0276003752     2.2546741994
C     -0.3685238176     2.7306577895     1.9231579737
C     -1.7316774147     2.2711105566     2.0213376921
C     -0.1905095544     3.2202012791     0.5659564727
C     2.0400809145     2.2084414081     0.5430403156
C     1.0107821852     3.0106803018     -0.0958749085
C     3.0351795728     0.056182395     -0.2183210261
C     2.6505541849     1.4044567653     -0.4766312225
C     2.2687046124     -2.2262673947     -0.8176382938
C     2.7729215138     -0.9674966899     -1.2493571945
C     0.1392424025     -3.0900613671     -0.5254558036
C     1.1656998616     -2.8458146998     -1.5177722805
C     -1.9261420582     -2.0796342601     0.37497513
C     -1.1926054832     -2.6685384819     -0.7555268538
C     -3.1014642068     0.0348007182     0.9642386129
C     -2.8581555967     -1.0496918645     0.0592156313
C     -2.3507911947     2.3689876451     0.7158264999
C     -1.4338611627     3.0527485601     -0.1717245731
C     -3.0884003674     1.2892249852     0.214827574
C     -1.4157126049     2.7591280673     -1.5343223659
C     1.0318043217     2.752533216     -1.5208457298
C     2.0863805754     1.7824423759     -1.7624939224
C     -0.1559344596     2.6699858648     -2.2485239768
C     2.3690561789     -0.5295779669     -2.5678505101
C     1.9843921316     0.8734819074     -2.7948794215
C     0.8390013073     -2.4441978732     -2.8103212166
C     1.5545880436     -1.3333408705     -3.3794801702
C     -1.5146911316     -2.2662757629     -2.1165631916
C     -0.5440090922     -2.2783892754     -3.1308817625
C     -2.9808642523     -0.5001003641     -1.2862537144
C     -3.0378274497     0.9553554184     -1.1836474683
C     -2.2837080713     1.7262058243     -2.0775599094
C     -2.3754245556     -1.1017651074     -2.3584587507
C     -0.2893228865     1.6874105366     -3.3177978257
C     0.809081498     0.8861248292     -3.6703970064
C     0.5797870481     -0.4728379662     -4.0635952328
C     -0.6817616259     -1.0450248607     -3.9306078008
C     -1.616765032     1.093276138     -3.2009306519
C     -1.7788531933     -0.2893070746     -3.4204993866


