58

 C     1.5442175417     0.0203304606     4.3197202553
C     0.7174752638     -1.1651752705     4.02157279
C     1.4550480479     -2.0360046568     3.2188627487
C     2.6719134771     -0.0318383628     3.424129373
C     2.6859165521     -1.2975091886     2.8161761666
C     2.6318255756     1.1263945984     2.5361672982
C     0.778581874     1.1148098473     3.9151048675
C     1.4660058325     1.8987284595     2.9020903374
C     -0.5948999535     -0.7768783254     3.5868620246
C     -0.5857433859     0.6934453757     3.6093390387
C     -1.2334695663     -1.4360194031     2.5000020488
C     0.8931825789     -2.603300544     2.0581148895
C     -0.4883631926     -2.4407460344     1.7366827893
C     2.859891899     -1.467509284     1.4283882243
C     1.8497962544     -2.4044844985     0.9721433602
C     2.9911729079     1.0082851063     1.1584547001
C     3.1679881577     -0.3379800697     0.5864188432
C     2.4588195132     2.0073071612     0.2834600153
C     0.7114075591     2.6153430003     1.9253559911
C     1.3253456818     2.8121650987     0.6581802816
C     -1.3171087535     1.4277078758     2.7047659368
C     -0.7286062993     2.5043848826     1.9361312691
C     -2.2727074377     -0.6781361385     1.774520462
C     -2.2841435959     0.7592494328     1.8618918958
C     -2.8116350552     -1.2286015109     0.6135777276
C     -0.9035149502     -2.7811796283     0.3824508821
C     -2.2262065254     -2.410114485     0.0050817004
C     1.4591693575     -2.4945384343     -0.3717532921
C     0.0903203399     -2.9092240344     -0.687164413
C     2.9242673157     -0.525634916     -0.7929479963
C     2.1641237071     -1.6510764753     -1.2810366791
C     2.4064022975     1.8344606535     -1.1500231481
C     2.6618196919     0.5789083051     -1.6917518595
C     0.5539442737     3.097996056     -0.5350856787
C     1.2981944925     2.6129130295     -1.674874146
C     -1.469108371     2.5899920754     0.7257226769
C     -2.5131504641     1.5719747805     0.7189471514
C     -0.8704028172     2.9848977419     -0.5178227151
C     -3.3652176959     -0.3884052253     -0.4669156999
C     -3.0438128068     1.0270936108     -0.4896631045
C     -2.6183255008     -2.3992045725     -1.3531085111
C     -3.336419068     -1.1328534651     -1.6466516538
C     -0.323942628     -2.7715528895     -2.0450328469
C     -1.7010934268     -2.6055965711     -2.3625888896
C     1.5945262485     -1.3140123784     -2.5623663842
C     1.8796173846     0.0959803826     -2.8233179904
C     0.4054881386     -1.8938808928     -2.9571071107
C     0.627540555     2.2018778387     -2.8232958609
C     0.9343741178     0.9026857512     -3.4345599726
C     -1.5380805248     2.5872756626     -1.7285824934
C     -2.6587569485     1.6076341609     -1.723327221
C     -0.7900265244     2.3594971201     -2.891317124
C     -2.851063135     -0.58954677     -2.8749376159
C     -1.8561807649     -1.5143764829     -3.3584810534
C     -0.5737921804     -1.0872089935     -3.7210413653
C     -0.3290004673     0.3116351848     -3.8996483965
C     -2.5573047742     0.8026448363     -2.9212558879
C     -1.3662998536     1.2169710025     -3.5946566654


