58

 C     1.4608741891     -0.2596011747     4.3242108369
C     0.6926702499     -1.3680015173     4.3195085826
C     1.2248409779     -2.3187114346     3.323739503
C     2.5039654594     -0.4088553951     3.2760541372
C     2.3087730826     -1.6764312568     2.5978642089
C     2.4742247692     0.7433146677     2.5150665883
C     0.6226527002     0.9013763796     3.962329594
C     1.3299332718     1.5943751217     2.9908675965
C     -0.6834761055     -0.9810100085     3.907189605
C     -0.6995652591     0.4480301504     3.6032207724
C     0.1307108112     -2.7370106226     2.579055639
C     -1.042190347     -1.8465978712     2.8994937195
C     0.2923497092     -3.1895744733     1.2551671923
C     2.3198001557     -1.7392000512     1.1533265111
C     1.4777030677     -2.7535991126     0.5223031007
C     2.7256204198     0.7032899198     1.0941082857
C     2.6218776206     -0.5445543141     0.3659467013
C     2.4597751926     1.8946626983     0.4233395013
C     0.6487920765     2.3755020314     2.0458255977
C     1.5007156989     2.8450122257     1.0074349383
C     -1.3212257511     0.9315594099     2.388276217
C     -0.7379630723     2.1100827833     1.7394029588
C     -1.8802158437     -1.4163652408     1.804302875
C     -2.0534912762     0.0105022456     1.5335614656
C     -0.9336791216     -3.353718438     0.5565298815
C     -1.9884804636     -2.3594513945     0.7795495016
C     -0.9134932269     -3.5980295278     -0.8229714402
C     1.3951939236     -2.7636971032     -0.8924775696
C     0.2610400023     -3.3562222705     -1.5443730855
C     2.2832333739     -0.4590756627     -1.0732468134
C     1.7557479296     -1.6123110664     -1.6716298512
C     2.3429407285     2.0014205154     -1.0127529145
C     2.0818711834     0.8336705194     -1.7740206019
C     0.9473910254     3.5798480825     -0.0079529086
C     1.6298252306     3.221947633     -1.2730949348
C     -1.2763392518     2.6157498168     0.4873734507
C     -0.4614191896     3.5754471044     -0.2415750263
C     -2.501544497     0.4254182874     0.2007442023
C     -2.2443726862     1.8002877776     -0.2509362125
C     -2.5421230188     -1.9960273107     -0.502349168
C     -1.9993670615     -2.858615728     -1.4836370848
C     -2.8185272379     -0.6103434144     -0.7849967474
C     -0.0685740816     -2.5956527018     -2.7336581351
C     0.8212662966     -1.5131101535     -2.8160748269
C     -1.4948999478     -2.3274152524     -2.7033584454
C     1.1453817953     0.9534635456     -2.9369164675
C     0.4097529533     -0.2442392458     -3.3450254147
C     0.7340167913     3.3188534532     -2.2891751134
C     -0.5867885348     3.6992046269     -1.6713462779
C     0.5191563425     2.2317737197     -3.1985108212
C     -2.4472776819     2.0988079231     -1.6544112337
C     -1.5462036161     3.0226438986     -2.3446480204
C     -0.9022074651     2.2728091069     -3.4623140012
C     -2.7677886626     -0.2840391226     -2.1816258845
C     -1.9298480879     -1.0790512609     -3.0942919391
C     -0.9946633282     -0.1417882828     -3.6884972333
C     -2.6634934777     1.0532983861     -2.5696361168
C     -1.6228787454     1.1299483489     -3.6302888744


