58

 C     1.1223077913     -0.0455504275     3.8944767394
C     2.2456992649     -0.3971833882     3.1887924455
C     2.1238676396     -1.7978013048     2.7333502003
C     0.2673298123     -1.2525903171     3.9521168402
C     0.8332391911     -2.2766245742     3.0726440893
C     -1.0186728343     -0.8394371327     3.7512706317
C     0.311564042     1.090867964     3.4520859654
C     -1.0225700023     0.6368304603     3.5096427607
C     0.7163390879     1.91001427     2.3564398522
C     2.709294169     0.4005919753     2.1051220961
C     2.0512111635     1.6474129318     1.7974757815
C     2.6217794133     -1.8341735508     1.418334153
C     3.0778442965     -0.4979665449     1.0339741504
C     1.9307222704     -2.5755022002     0.46317201
C     0.0084099566     -2.8830152815     2.052032095
C     0.6510944868     -3.1476313478     0.7937414275
C     -1.8983553753     -1.4549658811     2.8178618647
C     -1.4363315179     -2.5444678653     1.9916351361
C     -1.9395858245     0.9018066163     2.5000038681
C     -2.6380821502     -0.3637552002     2.2064762931
C     -0.301664622     2.410028764     1.4177435526
C     -1.630761429     1.82121759     1.451602526
C     0.1281488154     3.112515412     0.1957716984
C     2.3683923202     2.1749910999     0.5495728205
C     1.5216579774     3.1281287307     -0.1386323732
C     3.0569455413     -0.0662429838     -0.3088487423
C     3.0151662819     1.3571753887     -0.4663514893
C     1.9243610864     -2.1563109013     -0.933484386
C     2.4856878978     -0.9201220747     -1.3616511451
C     -0.0853344857     -3.2473154277     -0.4582104063
C     0.7298118148     -2.6747424256     -1.5262143058
C     -2.1419043411     -2.7274820788     0.7576907826
C     -1.4574676442     -3.1043947806     -0.484671871
C     -3.2681411504     -0.5420880603     0.9989407687
C     -3.1541851277     -1.8136660635     0.3682743449
C     -2.3914229458     1.666479811     0.2006064239
C     -3.1643807745     0.4853111446     -0.0274262646
C     -0.8034656369     3.2100070087     -0.9158981668
C     -1.9482020191     2.3567315918     -0.9459103178
C     -0.3317738265     3.2975624206     -2.2780068906
C     1.9528442724     3.1382978798     -1.5119297202
C     2.7198391127     1.9327764697     -1.7017762919
C     1.0137601018     3.1596630227     -2.5502419397
C     1.9439620786     -0.2836620458     -2.5774032202
C     2.1657777971     1.1375076388     -2.7908275655
C     1.1901134158     1.9374128004     -3.4113038753
C     0.1348406646     -2.0062137223     -2.593924111
C     0.7598189321     -0.8241573114     -3.1536516718
C     -2.0793855393     -2.3887048491     -1.6064058733
C     -3.113269188     -1.5897286537     -1.0534223938
C     -3.1544283219     -0.1907605958     -1.314183167
C     -1.2911447332     -1.8382471009     -2.6248005312
C     -2.0709843361     1.7541072733     -2.2921216958
C     -1.0576201236     2.2913330466     -3.0692547053
C     -0.1005810902     1.4209380881     -3.725282768
C     -0.3039982092     0.0348859643     -3.6589209404
C     -2.4331372862     0.3638851077     -2.4149247668
C     -1.5449802003     -0.4939763795     -3.1351697218


