58

 C     1.2929275451     -0.1800659051     3.8499869653
C     2.4997323991     -0.4751714909     3.2328192906
C     2.4422205389     -1.8796023223     2.7795668914
C     0.4315553527     -1.3690877055     3.7612539243
C     1.1474867346     -2.4294819377     3.1179289665
C     -0.8315748934     -0.9584016861     3.3018114096
C     0.5219658636     0.9604835566     3.447153679
C     -0.8465035736     0.5061312109     3.189449144
C     1.0948725933     1.8926960503     2.5884209097
C     2.9844110461     0.3404348903     2.1586990397
C     2.3482480487     1.5774745358     1.9216829781
C     2.923560553     -1.9121700642     1.4616579244
C     3.2565051303     -0.5285762842     1.033868335
C     2.2982524388     -2.7870508196     0.5377630065
C     0.4680395069     -3.2049472982     2.1436324202
C     1.1666538224     -3.5180824868     0.9339103103
C     -1.5327904793     -1.745013396     2.3043111606
C     -0.8790097124     -2.8675494163     1.744226706
C     -2.4802934959     -1.056507415     1.4956052003
C     -1.676232884     1.1586541097     2.2725621529
C     -2.6481336654     0.3441213611     1.575216151
C     0.2580862196     2.6136368696     1.6476141048
C     -1.1627748434     2.3547064049     1.5556630966
C     2.2521227855     2.0790011349     0.5936196656
C     1.0137491678     2.8714014784     0.4819383184
C     3.0449929229     -0.1028634026     -0.2944431321
C     2.6646036034     1.3080521112     -0.5157246522
C     2.1143381926     -2.3647012122     -0.8527846295
C     2.5708294839     -1.0992433194     -1.2889286021
C     0.2326019527     -3.5079642995     -0.1852532793
C     -1.0108536844     -3.0976058842     0.27556029
C     0.8371565384     -2.8536804138     -1.305385393
C     -2.7676286385     -1.4410467537     0.1015074734
C     -1.8639766319     -2.2988530272     -0.5638716128
C     -3.2732521114     0.8031163584     0.3489881421
C     -3.3575876019     -0.3283856081     -0.5606518892
C     -1.8081810458     2.7791236887     0.3902277639
C     -2.9657445415     2.0637686904     -0.1518702314
C     0.3922685484     3.1564447096     -0.7663886149
C     -1.0525765779     3.2900977391     -0.7611506281
C     2.1377889196     1.7029881991     -1.7951629038
C     1.025081864     2.6867801772     -1.9411963384
C     1.9808814277     -0.6337292505     -2.4945640386
C     1.9852718907     0.7632758376     -2.8054122656
C     0.035846256     -2.126599033     -2.2260121338
C     -1.4038352345     -1.9281203783     -1.9185566145
C     0.7320924959     -1.1578452457     -2.9854506054
C     -3.1443091377     -0.1425561928     -1.9430870645
C     -2.0994194848     -0.9033533718     -2.5941271181
C     -2.982996533     2.2715789098     -1.5710344783
C     -1.7860983401     3.0453768981     -1.934737502
C     -3.0843542445     1.1986590892     -2.4444938269
C     0.2417482471     2.3265628144     -3.1007374391
C     0.7925631276     1.0934902286     -3.5757929852
C     0.0109163266     -0.0706174662     -3.6515342048
C     -1.3975135448     0.0236393187     -3.5194381363
C     -1.170608665     2.4580961055     -3.0867507904
C     -1.9731319786     1.2990906091     -3.4121043094


