58

 C     1.2716640129     -0.158806294     4.8778932259
C     0.4561811598     -1.2430796365     4.705046818
C     1.0499484001     -2.1816085015     3.7503445665
C     2.4200579866     -0.3515229756     3.9630801834
C     2.2495099938     -1.5970025968     3.2061454787
C     2.5671362606     0.8176318597     3.2425631154
C     0.525222344     1.0194669469     4.3876554146
C     1.3685603326     1.7124860784     3.5337041647
C     -0.8240351099     -0.8211685965     4.1196485332
C     -0.7679985848     0.5940407255     3.8536203543
C     0.0241868772     -2.6287615823     2.8901308028
C     -1.1621538527     -1.714487073     3.0916405124
C     0.3593996246     -2.9434395392     1.5874025477
C     2.4371650405     -1.6116512529     1.7704216819
C     1.6058506636     -2.5002584436     1.013200637
C     2.7525142539     0.8284251837     1.8409085948
C     2.7811792999     -0.3792822816     1.0544452399
C     0.9244996575     2.2149927258     2.3037195965
C     1.9716367043     1.9346457911     1.3217064288
C     -1.2247129062     1.0655454913     2.5772153998
C     -0.4240216261     2.0390143098     1.8377794272
C     -1.8530936104     -1.260037323     1.9543048484
C     -1.9903824905     0.1718200252     1.7236376538
C     -0.6444836844     -2.9110441847     0.5555279127
C     -1.8230149597     -2.1335419363     0.7770944834
C     1.3600730794     -2.3477490377     -0.3947249177
C     -0.0024182322     -2.7822440468     -0.7050094042
C     2.507647185     -0.2311416877     -0.3638395903
C     1.8874117537     -1.2925209107     -1.1589974875
C     1.7462599403     2.0899095267     -0.0049206403
C     2.3344840314     1.1004111775     -0.9021147369
C     -0.669173572     2.3054460048     0.4401421034
C     0.4587615837     2.6671280468     -0.4061761019
C     -2.4258931188     0.6276939066     0.4135999505
C     -1.8448104528     1.7962516366     -0.2325697221
C     -2.5171716014     -1.7303147134     -0.3470147722
C     -3.0303300305     -0.3500473425     -0.4467718176
C     -0.6950599571     -2.3658816105     -1.8662892199
C     -2.0988673913     -2.0978587781     -1.6687920934
C     1.3226814932     -1.0357177827     -2.5017440459
C     0.0357711987     -1.6365645338     -2.9039265931
C     2.0808334109     1.2774560028     -2.2529901792
C     1.7110800352     0.1828826348     -3.1259532667
C     0.2846993191     2.8936077515     -1.7553808502
C     1.338499483     2.4596865354     -2.6875875406
C     -2.0465404718     2.054577005     -1.6786388872
C     -0.9938699098     2.728551856     -2.4107412462
C     -3.2722418683     -0.0799525012     -1.7858524025
C     -2.7840208121     -1.2332301025     -2.5684098194
C     -2.8497470822     1.1242239618     -2.4371642699
C     -0.7441575172     -0.9727316332     -3.9276033607
C     -2.1599199074     -0.7477117431     -3.6825854822
C     -2.4057961358     0.7159920613     -3.7543723282
C     0.9495281636     0.7770599091     -4.2015327536
C     0.7498156278     2.2073618651     -3.9069687062
C     -0.6900251677     2.4160138404     -3.7917405117
C     -0.2682359862     0.2201754772     -4.5504151157
C     -1.3200829078     1.2968603246     -4.3717518029


