58

 C     1.4960632699     -0.0705271558     3.9470695518
C     0.6862517431     -1.2301066769     3.8060774018
C     1.2363998757     -2.0547252395     2.7667620631
C     2.5334557476     -0.1105246305     3.0032647234
C     2.3554792296     -1.3092764289     2.1967193814
C     2.5741050033     1.1700010076     2.3411349663
C     0.6850709858     1.1008989523     3.632657095
C     1.3787584736     1.9323731905     2.7124254756
C     -0.6712320412     -0.7939573909     3.645918716
C     -0.6421358443     0.6616928025     3.366657971
C     -1.5225288414     -1.5931276449     2.9462432374
C     0.3811174085     -2.8286987507     1.945084219
C     -1.0207817846     -2.7953629183     2.2999930757
C     0.7196692234     -3.0163345377     0.5171530797
C     2.5220766816     -1.2534057128     0.7867054704
C     1.7122632057     -2.1164271301     -0.0919433658
C     2.980115063     1.1969210797     1.0298317062
C     3.0350951887     -0.0175899303     0.2492568551
C     2.5476526106     2.2697938163     0.1608351503
C     0.6592885563     2.6226592616     1.7043576606
C     1.4020726747     3.0493637203     0.5047894863
C     -1.35648971     1.1958259449     2.2551648704
C     -0.7603801847     2.3129750583     1.555068112
C     -2.502131793     -1.0002659271     2.0195015463
C     -2.3291008241     0.3247661583     1.5442366645
C     -1.9994064134     -3.163314849     1.3435292899
C     -2.8984471192     -2.0146625548     1.1322680578
C     -0.2916118055     -3.6041765015     -0.3231770492
C     -1.6730760733     -3.6947671748     0.1224124381
C     -0.3494448882     -3.2350449665     -1.6920495306
C     1.5910559666     -1.7359221814     -1.4987387534
C     0.5086968125     -2.3041044146     -2.2533453541
C     2.844671113     0.3736465391     -1.1122714915
C     2.7439306234     1.8241507586     -1.1898460357
C     2.1253934909     -0.4705472742     -2.0090443911
C     2.0412326953     2.4436008675     -2.2333286969
C     0.6735943475     3.6386071721     -0.584650657
C     1.0928312133     3.4599656919     -1.931650576
C     -1.3971785253     2.7242495037     0.3453659285
C     -0.7687833112     3.5560576655     -0.5712401009
C     -2.6668091219     0.5666006275     0.1354767265
C     -2.2722725168     1.7986740865     -0.4018376501
C     -3.1107687785     -1.8351188422     -0.2654568352
C     -2.5060365583     -2.9961544046     -0.8871361686
C     -1.7445595069     -2.8166695     -2.0100424023
C     -2.9285749171     -0.533174809     -0.815921961
C     -0.3106030462     -1.4276917304     -3.1174894715
C     -1.6957711665     -1.5751648555     -2.6825446617
C     -2.3472962615     -0.4102303048     -2.1654916184
C     1.4914726288     0.193715013     -3.1337028718
C     1.4925609916     1.5894851069     -3.2586080701
C     0.1481186349     -0.2337568556     -3.5341027719
C     -0.1118671858     3.18147475     -2.7573083643
C     -1.217144618     3.1707128799     -1.9154644367
C     -2.0748203305     2.0265745902     -1.814499701
C     -1.8804358081     0.8840893829     -2.6597206876
C     0.1301501354     2.0442221267     -3.5551356567
C     -0.7389546186     0.9277335387     -3.5502115793


