58

 C     1.4109535334     -0.0972717528     4.3817470817
C     0.5842948959     -1.2918338585     4.3749380574
C     1.3038573526     -2.2914589352     3.6938950191
C     2.5012839575     -0.3210103734     3.4241184978
C     2.5376512839     -1.6575085784     3.0681535716
C     2.4587822799     0.6990130402     2.389927642
C     0.6434333654     0.9294973809     3.8447644963
C     1.308202563     1.5243460647     2.7033000002
C     -0.7342763006     -0.9534862077     3.8798939513
C     -0.7127970097     0.4751201118     3.6100753913
C     -1.4015389428     -1.7975036404     2.9053252122
C     0.6981955002     -3.0719098244     2.706766365
C     -0.649221725     -2.8840146802     2.2932721942
C     2.5447652381     -2.025969206     1.6852440631
C     1.5449032251     -3.0297564461     1.5085788184
C     2.6842708591     0.3690518261     1.0276462805
C     2.6953538341     -1.0386839231     0.6404843001
C     2.2597910057     1.3474691513     0.0424004981
C     0.5672696575     2.1396290151     1.6884222282
C     1.2561544772     2.3210484136     0.4396366386
C     -1.5005337548     1.0766580487     2.5946770599
C     -0.9049702722     2.0469992352     1.6748625247
C     -2.3744262429     -1.1791967042     2.0959336003
C     -2.5523294725     0.2544543601     2.0747302747
C     -2.6577770251     -1.6243013276     0.7202506673
C     -0.6593793618     -2.9837454938     0.8368932239
C     0.7229705683     -3.0354730203     0.3870975578
C     -1.6433561695     -2.3898277137     0.0132184582
C     2.1641166249     -1.3403811322     -0.6664108949
C     1.0928249813     -2.317284994     -0.7709699102
C     2.4097542563     1.046863316     -1.3605808116
C     2.2964355485     -0.3610719272     -1.7301955103
C     1.9729545173     2.0332073937     -2.3224869755
C     0.5781495977     3.0375577123     -0.5706257515
C     1.0578209673     3.0339262869     -1.8757038068
C     -1.5903954408     2.3846467727     0.4429152642
C     -0.8745122729     2.9812881589     -0.6205314184
C     -3.216976055     0.596509443     0.8721293457
C     -3.3308063068     -0.6070000245     0.05146213
C     -2.7583953313     1.6156238643     0.0437225761
C     -3.0258138835     -0.2633914631     -1.287910217
C     -2.8652222519     1.1708020285     -1.3568598965
C     -1.3264997752     -2.0505741385     -1.3601045048
C     0.0848321713     -2.1385846288     -1.7804040888
C     -2.1562966376     -1.0825169112     -2.0788658698
C     1.7039702508     -0.6923436585     -2.9771009538
C     0.5142005069     -1.5214263385     -2.9603571401
C     1.5847576819     1.6641133392     -3.6496364067
C     1.4555473061     0.3273497818     -3.9822459143
C     -0.0874031927     3.0728885064     -2.7929211338
C     -1.2672779116     2.880944026     -2.0229422084
C     -2.1561216956     1.791803613     -2.4035025714
C     0.2240333931     2.293906665     -3.9094103775
C     -1.6820514715     -0.4789568784     -3.2722718291
C     -0.4422312772     -0.9291750045     -3.8731444984
C     0.1435817602     0.0997621749     -4.6010205607
C     -1.7818140195     0.9494547602     -3.5249889351
C     -0.6526894005     1.2917242847     -4.3652908245


