58

 C     1.082140725     0.1625126838     4.8015535934
C     0.3754985013     -1.0146504562     4.3572415535
C     1.2532258745     -1.8832544062     3.6571506835
C     2.3527628159     0.116038431     4.0995205521
C     2.5179106968     -1.166477862     3.4803043908
C     2.4999844677     1.2648442551     3.2786379159
C     0.3723711165     1.2605086756     4.222782629
C     1.2379717636     2.0311417943     3.3945682714
C     -0.8245257261     -0.6640705479     3.6593389178
C     -0.8465052884     0.8011380449     3.5964451229
C     -1.275542074     -1.429316777     2.5279919105
C     0.9003566462     -2.5365536367     2.4361365552
C     -0.3965968475     -2.3902744683     1.8482217528
C     2.8896746363     -1.2945724566     2.1259150235
C     2.0392459622     -2.3549295898     1.5666167867
C     2.7976453365     1.1480640322     1.9015415214
C     3.0824340567     -0.130241006     1.2867388211
C     0.8409065564     2.4413793174     2.1087486467
C     1.8733910084     2.023472909     1.1768221221
C     -1.3559959203     1.4444792833     2.4439066476
C     -0.5073001302     2.3245803124     1.6463742589
C     -2.1947829765     -0.7731997575     1.7021712451
C     -2.3046744489     0.6813046617     1.7094051122
C     -2.5681707524     -1.2221223265     0.3874256744
C     -0.5620285858     -2.5972611811     0.3912586552
C     -1.7266670756     -2.0749109754     -0.3524451276
C     1.8904542998     -2.4707931475     0.2208394846
C     0.6077953218     -2.7632626413     -0.3742852217
C     2.8636410125     -0.2469497543     -0.142161592
C     2.5160908639     -1.517576001     -0.6694688258
C     1.6234096905     1.9242001259     -0.191138374
C     2.3548314397     0.8998915984     -0.9255877482
C     -0.7536789348     2.4526291105     0.2302777147
C     0.347881576     2.4000237629     -0.7172419518
C     -2.7786804661     1.0919899833     0.4629006627
C     -3.2055967188     -0.1046217819     -0.2621185661
C     -2.07515292     2.1096919021     -0.29233681
C     -3.3614984921     -0.0743324524     -1.6094369042
C     -1.729755931     -1.9413013683     -1.8387478384
C     -2.7047198107     -1.0896584515     -2.4383885434
C     0.6790851076     -2.4078564756     -1.7901552548
C     1.9037584522     -1.6683870975     -1.9515033432
C     -0.4586899428     -2.1157372678     -2.5731474046
C     2.042893333     0.7362807314     -2.2736621778
C     1.9397110092     -0.6037416053     -2.853905448
C     0.0930464414     2.3180526879     -2.1491419455
C     1.050273954     1.5594189399     -2.9464143707
C     -2.3311161999     2.1767395869     -1.6685664859
C     -3.227095892     1.2107899639     -2.2809811885
C     -1.2532245167     2.4031299477     -2.6398349527
C     -2.4834881408     -0.4440064486     -3.7225874833
C     -2.8331252183     0.9861519222     -3.5926705281
C     -1.6461029838     1.7572493288     -3.8737191531
C     -0.2158989788     -1.3441452959     -3.789663377
C     0.9848549106     -0.5688717672     -3.867150003
C     0.5976107894     0.8374480678     -4.0957657941
C     -1.2578562644     -0.5364394366     -4.355009946
C     -0.7323871489     0.8663644097     -4.4835998761


