58

 C     1.6804469751     0.150467903     4.3448006079
C     0.8919660282     -1.0810406396     4.3334156746
C     1.5266344867     -2.0040625647     3.4916952442
C     2.6546366686     0.0411938145     3.2693544475
C     2.6142335077     -1.2650178851     2.7944574666
C     2.4114288972     1.0881387062     2.2843625004
C     0.7999955896     1.1651959844     3.9589559989
C     1.3055054841     1.8547733667     2.7793286541
C     -0.5100921619     -0.7598117747     4.087314621
C     -0.5788741804     0.6882320961     3.9274800192
C     -1.2517615547     -1.5571685897     3.195734591
C     0.8071343199     -2.7145862313     2.4968217953
C     -0.5974275473     -2.5962071042     2.4308311149
C     2.5423316099     -1.5564630141     1.4027326903
C     1.534673013     -2.5675602347     1.2302415574
C     2.5178219721     0.8489615336     0.8704756479
C     2.6446488148     -0.5253221076     0.4089507755
C     1.9106260459     1.806999479     -0.0301864798
C     0.4223705021     2.4853392686     1.8794258492
C     0.8857600778     2.6862238845     0.5170025264
C     -1.4355914815     1.2544519268     2.9892472338
C     -0.9817703033     2.3032580799     2.0967629914
C     -2.2280941054     -0.9494162036     2.2866697321
C     -2.3497377277     0.4337985438     2.2056189845
C     -1.2357569909     -2.6703499098     1.1359363617
C     -2.2750389509     -1.6786298895     1.0484882598
C     0.9278306555     -2.7562472899     -0.0178699304
C     -0.51611344     -2.9761035546     -0.0398745271
C     2.2686605594     -0.8629155056     -0.942648848
C     1.5386050307     -2.1059972903     -1.1593181696
C     1.972086252     1.5638075077     -1.4728702696
C     2.1896531545     0.1916722072     -1.9444988047
C     1.246328432     2.4676053093     -2.3309535117
C     -0.0577963025     3.2262881263     -0.3903081662
C     0.2010755731     3.2242580883     -1.7571091439
C     -1.8605286549     2.3185850118     0.9629155403
C     -2.6149363049     1.0848729246     0.9287222313
C     -1.4729064889     2.8990252192     -0.2130463273
C     -2.6321706877     -1.062722584     -0.2099190735
C     -2.7835503593     0.3982737681     -0.2958474141
C     -1.2031966491     -2.7469381013     -1.258024938
C     -2.2450760596     -1.7463613442     -1.3665387055
C     0.9158541693     -2.3270932563     -2.4241666836
C     -0.4743008094     -2.6826062493     -2.4479194388
C     1.7398072588     -0.1732717159     -3.2767709917
C     1.1254389195     -1.4220992471     -3.4859870778
C     0.7257999329     2.0222571735     -3.6148224488
C     0.9815163823     0.777702516     -4.0831894664
C     -1.0563657872     2.8970981571     -2.4736171356
C     -1.9764397819     2.4140031492     -1.4812095439
C     -2.5042654715     1.0923531152     -1.5806779955
C     -0.7612384513     2.1976423101     -3.6036233407
C     -2.1281356525     -1.1083290605     -2.6907136937
C     -1.1734056331     -1.8628159178     -3.4320095998
C     -0.1856690126     -1.2000199259     -4.184149587
C     -0.3128273752     0.1346761516     -4.4670454033
C     -2.2115789797     0.3231838717     -2.823913909
C     -1.3682233976     0.9188179472     -3.858912512


