58

 C     1.4131357149     -0.1429003413     4.2385605718
C     0.625281992     -1.247750037     4.0790718705
C     1.3006040783     -2.1447337986     3.0847301105
C     2.5459564956     -0.2473045497     3.3293192639
C     2.4424261578     -1.4413533968     2.5428451049
C     2.7064992701     0.991253337     2.6847895673
C     0.6494871431     1.0306776698     3.7593910304
C     1.4325641883     1.7576087515     2.8536772127
C     -0.7394147841     -0.801270273     3.7559505429
C     -0.6603341884     0.6191515098     3.3889693335
C     -1.515266313     -1.6392247166     3.0106608426
C     0.5095060803     -2.8870531903     2.2515340014
C     -0.9228029656     -2.8770277111     2.4484058588
C     0.7457305196     -2.9153972802     0.7877686437
C     2.6518573951     -1.3830394112     1.0989457975
C     1.7204314547     -2.1013444758     0.1759350179
C     3.3050931071     0.9763373358     1.4377839889
C     3.2901249458     -0.2257623626     0.6154523059
C     3.011154055     2.0588879687     0.5851114947
C     0.8292079201     2.3702536562     1.7045868114
C     1.7541876516     2.7211553623     0.6652878726
C     -1.275853247     1.1072674845     2.1797837487
C     -0.5563721096     2.0662273604     1.3483354083
C     -2.414004126     -1.0894023518     2.0203795035
C     -2.2992943413     0.2613136129     1.5608405426
C     -1.5210676167     -3.0858240119     1.2178177746
C     -0.5141627252     -3.1425471494     0.1552678102
C     -2.600462053     -2.1406056671     1.0478504554
C     -0.8112529624     -2.6643181612     -1.1352047313
C     1.4592160376     -1.6193335802     -1.2019104421
C     0.2081709663     -1.9371000852     -1.8910107896
C     3.1212952934     0.2145620417     -0.7628875506
C     3.172055346     1.6326279205     -0.7800714587
C     2.2525428829     -0.4869510805     -1.6895549831
C     1.2946816318     2.9604305913     -0.677107278
C     2.2737290753     2.3546201979     -1.5844351671
C     -1.0314726595     2.352738481     -0.024135555
C     -0.0789415062     2.9217759138     -1.0059461844
C     -2.8023004653     0.5853126282     0.2269140342
C     -2.2373604353     1.7172357616     -0.5219743541
C     -2.9781194352     -1.8322000929     -0.2117181911
C     -2.2142862479     -2.3518566692     -1.3788863349
C     -3.3833900098     -0.4898988991     -0.5276048536
C     -2.5774625007     -1.5785694002     -2.4480656522
C     -3.4337613288     -0.4588285948     -1.9461752079
C     -0.2211376506     -1.176496106     -3.0973991667
C     -1.6471035014     -1.0398551332     -3.3903740346
C     1.7863896852     0.2640968278     -2.7937987615
C     1.8345779015     1.7417179714     -2.7426630222
C     0.608441098     -0.1016887322     -3.5473307468
C     -0.3506084347     2.8130430352     -2.427470546
C     0.643006995     2.2091030792     -3.2885678705
C     0.0111515679     1.132788071     -4.0187612221
C     -2.5327540593     1.80002066     -1.9643106789
C     -3.1259804313     0.6537449662     -2.6502157366
C     -2.1850965042     0.2528431649     -3.730289315
C     -1.6042680817     2.3475196812     -2.8650362919
C     -1.3641759961     1.3353221974     -3.9530604549


