58

 C     1.310027249     -0.0228165611     4.597529216
C     0.5949183595     -1.1759535665     4.1227693414
C     1.4343959894     -1.9658903115     3.3195268539
C     2.5593769545     0.0102709851     3.8452809281
C     2.6767739094     -1.1962902737     3.09732127
C     2.6280745785     1.229470603     3.114578248
C     0.5531258821     1.0957063977     4.132419993
C     1.3630471253     1.9658462237     3.3589499868
C     -0.6710208291     -0.7768689478     3.5162418378
C     -0.7032240212     0.6600599318     3.5354123689
C     -1.2263764807     -1.4753495459     2.4016101409
C     0.9879574077     -2.4906128481     2.0799736171
C     -0.3817360796     -2.3997936526     1.663660001
C     2.9172098676     -1.1974430251     1.7071826172
C     1.9771697883     -2.1512402838     1.0996763761
C     2.8619423497     1.2482107262     1.7238869946
C     3.0863437848     0.031263824     0.9759806217
C     0.891842259     2.472010738     2.1403425788
C     1.8970812896     2.174091142     1.1303457587
C     -1.2789580164     1.350483096     2.4332431753
C     -0.4708521271     2.3203071475     1.7184071449
C     -2.2878733009     -0.8053077316     1.6880977654
C     -2.3189782679     0.6521797441     1.7070498322
C     -2.8224661316     -1.4733791642     0.5479624516
C     -0.6650390929     -2.6614398225     0.2679389048
C     -1.9757802004     -2.3601140335     -0.1954290664
C     1.710328443     -2.1672250637     -0.2766513692
C     0.4176457467     -2.6699902477     -0.7030332452
C     2.8179672159     0.0354967511     -0.4407965195
C     2.4316480938     -1.2080288038     -1.1077674848
C     1.6363935294     2.2013823283     -0.2339200267
C     2.3620992433     1.2567986638     -1.0760535297
C     -0.7690101091     2.603455564     0.3295641554
C     0.3160211912     2.6717557768     -0.6666625054
C     -2.8737523737     1.3221823883     0.5867331492
C     -2.0529795778     2.2827262683     -0.1435645904
C     -3.630308274     -0.7627563074     -0.4036356553
C     -3.6433215381     0.632480526     -0.3819468652
C     -2.2830897726     -2.1516449782     -1.6260044396
C     -3.2875435737     -1.1662380969     -1.7485831384
C     0.0980167357     -2.5418433518     -2.0955517269
C     -1.2522390979     -2.1802744985     -2.5567971262
C     2.1203083305     -1.1825954583     -2.4871434421
C     0.9970158189     -1.9307756635     -2.9579598204
C     2.0429947059     1.2496831704     -2.462642848
C     2.0648739441     0.0564127698     -3.1956108937
C     -0.0149390765     2.6144367685     -2.0386631996
C     0.9083103921     2.0163994117     -2.9483705706
C     -2.3631851183     2.1439875134     -1.5747389829
C     -3.3350646059     1.1291949565     -1.7274122895
C     -3.0493848348     0.0101669745     -2.5644938706
C     -1.3418135793     2.2800194703     -2.5092745438
C     -1.1542917118     -1.1770784281     -3.6039151881
C     0.2301687548     -1.1244611999     -3.9605755694
C     0.8942363527     0.0677567439     -4.1289294087
C     0.1935563112     1.293428447     -3.9562909212
C     -1.9338040295     0.0457493218     -3.4867587098
C     -1.1938397928     1.2919975222     -3.5825077716


