58

 C     1.1602729827     0.3645131521     4.0579734589
C     2.3476117348     0.1258671877     3.3572041547
C     2.3483114242     -1.2776922661     2.9780838641
C     0.3043453323     -0.8492191178     3.9311206985
C     0.9949002645     -1.7850402318     3.1445977329
C     -1.0098221642     -0.4450470438     3.5837001397
C     0.3709984443     1.4542574755     3.7313010106
C     -1.0278725676     0.9861353645     3.6365272802
C     0.6230491056     2.2233406144     2.5586105667
C     2.6550080082     0.8761070951     2.1796020491
C     1.756112081     1.9029402695     1.7171594586
C     2.9834031926     -1.4107465217     1.7486228107
C     3.2015296032     -0.069647905     1.2044055879
C     2.5362673743     -2.4221766225     0.8791822529
C     0.3186294905     -2.4360464493     2.0051070723
C     1.1688212329     -2.9075354263     0.9746738708
C     -1.7449322752     -1.1071649216     2.5166602661
C     -1.0717734417     -2.1013152999     1.6744028703
C     -2.783301332     -0.3185731655     1.9443633749
C     -1.694100995     1.7367561951     2.6664302183
C     -0.6757395879     2.5031119118     1.944941361
C     -2.729863992     1.1280975613     1.9626149877
C     -0.821877462     2.7598309002     0.5813320034
C     1.6303240712     2.1456820826     0.2820361459
C     0.4089622256     2.7835393988     -0.2274954771
C     3.1277046947     0.1636714063     -0.1743046554
C     2.4471594319     1.3718644314     -0.647620596
C     2.8295874608     -2.2740601372     -0.4842095237
C     3.1148466364     -1.0138132358     -1.0406014123
C     0.6880339029     -3.1333240132     -0.3893834733
C     1.7534979657     -2.8722888535     -1.2765076386
C     -1.5601908474     -2.3356750683     0.2886963609
C     -0.6427983894     -2.7886150871     -0.7619195873
C     -3.3292312103     -0.6752628808     0.6812423281
C     -2.7226248072     -1.6477755908     -0.1544376389
C     -3.0445830646     1.5923864828     0.637438546
C     -2.1227421229     2.4235978894     -0.0580754531
C     -3.6405653854     0.4904684717     -0.0764152477
C     -2.1765354675     2.3599204917     -1.4969676237
C     0.2447693139     2.9172197457     -1.6250715568
C     -1.0642108146     2.7506467285     -2.2277953853
C     2.1469559467     1.4358838226     -2.0454127855
C     1.1613419571     2.2978245741     -2.5139778386
C     2.4790592114     -0.9820599165     -2.3573631116
C     1.5874763843     -2.1477644837     -2.4696515176
C     2.0805140015     0.2142449335     -2.881392379
C     -0.8275049664     -2.3417556416     -2.1212914727
C     0.2876130005     -1.9677192626     -2.9509112847
C     -2.8689767532     -1.1566557745     -1.5292695545
C     -3.3729543544     0.221662728     -1.4439487549
C     -2.7909959516     1.2125451129     -2.2160383286
C     -1.9282557046     -1.4678614725     -2.4840706994
C     -0.9436281195     1.9179983795     -3.4371144617
C     0.3976678075     1.633066433     -3.600018263
C     0.8789077647     0.2997320481     -3.7264141255
C     -0.0622948916     -0.7528642656     -3.6824358048
C     -1.9108768698     0.8641635963     -3.3197329399
C     -1.4654285101     -0.4693758189     -3.44818189


