58

 C     1.4151833662     0.0710054015     4.1909056916
C     0.6108738726     -1.117647213     3.8924883616
C     1.3621003942     -2.0200160163     3.1582324051
C     2.6077820505     -0.0188132097     3.4004467282
C     2.6380912036     -1.3258808071     2.8127152957
C     2.6828826953     1.1029069212     2.5061744753
C     0.6716138155     1.1452157451     3.6640177804
C     1.4551050114     1.8726254511     2.7065118522
C     -0.6803580831     -0.7279756853     3.3667407395
C     -0.6395643448     0.7127048268     3.2317723104
C     -1.3155963196     -1.4795130017     2.349421469
C     0.8391699505     -2.5935277974     1.9661750475
C     -0.5347176264     -2.4596465785     1.6060851953
C     2.8787258567     -1.5227883981     1.4600120818
C     1.8152386708     -2.4100985496     0.9338035347
C     3.1792302648     0.9516169766     1.1730478208
C     3.3262782054     -0.4268823135     0.6221380844
C     2.8277745265     1.9727984005     0.2592846288
C     0.8229871792     2.544431523     1.6371209986
C     1.6648225057     2.8220915121     0.5206150153
C     -1.3219499711     1.3590551665     2.1662340364
C     -0.6177729795     2.3604124809     1.3856531579
C     -2.4308752499     -0.826480636     1.6873971358
C     -2.4412068449     0.6279330529     1.6004697314
C     -3.0648084226     -1.5772147449     0.6686717466
C     -0.8982941617     -2.7256393196     0.2260763876
C     -2.2606913138     -2.4978435559     -0.1067501733
C     1.4794963297     -2.4423447083     -0.4356460968
C     0.0996704516     -2.6793100285     -0.827398174
C     3.2154380925     -0.6277277345     -0.7565293826
C     2.3680885275     -1.7182258529     -1.3023764286
C     2.9024147671     1.7825505775     -1.1790391762
C     3.1277933786     0.477246812     -1.6920731763
C     1.1249726253     3.2091815606     -0.7270663459
C     1.9008345938     2.5784561253     -1.7912392712
C     -1.1285986581     2.6583262944     0.0575541999
C     -0.2311091458     3.0335598839     -1.0002163512
C     -3.1036481051     1.1997171469     0.4737973945
C     -2.3462725636     2.0832417338     -0.361615255
C     -3.9742139417     -0.9525249112     -0.268493487
C     -3.9482560029     0.4282094093     -0.3716529574
C     -2.6965059453     -2.3915587358     -1.4821989841
C     -3.8222541399     -1.5525835456     -1.5972898526
C     -0.3307419292     -2.2414492619     -2.167514489
C     -1.6980612497     -2.0221676861     -2.4447267057
C     1.9332083981     -1.3268382553     -2.568119873
C     2.3655157011     0.0475284419     -2.8057478448
C     0.5722230615     -1.4451659046     -2.9310288871
C     1.0021641139     2.0647864353     -2.7579508579
C     -0.345808498     2.3940156981     -2.3354929763
C     1.2474307156     0.771723812     -3.292414082
C     0.1351278094     -0.1491002634     -3.4518082273
C     -2.5887317162     1.7012832279     -1.7724807656
C     -3.5898770876     0.7400462514     -1.7871673195
C     -3.44859728     -0.4987175166     -2.4944698416
C     -2.162118085     -0.782370861     -3.0672975329
C     -1.4417828148     1.5868095316     -2.652679764
C     -1.2098256443     0.260572682     -3.2950790677


