58

 C     1.1548574158     -0.0660543558     4.1446482193
C     2.2996623671     -0.2006449144     3.3890777979
C     2.2089117181     -1.4406584428     2.5920362461
C     0.317441888     -1.2489373202     3.8818931515
C     0.9434497309     -2.0501587636     2.8164592459
C     -0.9802172073     -0.8241531605     3.7449188656
C     0.3085901792     1.1226559967     3.9888288187
C     -1.0307393046     0.6520409617     3.7864519485
C     0.7577978625     2.1642325743     3.1853880229
C     2.7919551623     0.8475033184     2.5409547833
C     2.0971112316     2.0881878537     2.5638457793
C     2.6566340235     -1.1585540359     1.3038306557
C     3.1113168468     0.2524566625     1.2630975887
C     2.0248245649     -1.7591482866     0.1776523063
C     0.1869212846     -2.5129916395     1.7159550243
C     0.808889337     -2.5220388266     0.381703015
C     -1.7898258907     -1.2983129085     2.6777147589
C     -1.2760457952     -2.2911036928     1.7700593037
C     -1.805542116     1.044558757     2.6838115289
C     -2.4337274684     -0.1517889101     2.113714507
C     -0.1447940778     2.7260382136     2.1624898288
C     -1.3671213056     2.080426109     1.7781846174
C     2.0531932105     2.8178076732     1.3639833987
C     0.6627262091     3.2679368931     1.138289846
C     3.0111790043     0.9624191777     0.0506445968
C     2.534296688     2.3234741313     0.1439884261
C     2.3330004377     -1.1851775899     -1.1329165951
C     2.7831834644     0.2133970952     -1.1912217437
C     1.683171173     -1.7535137362     -2.2554734609
C     -0.0063920159     -2.8553704002     -0.7899227367
C     0.472874786     -2.5558576713     -2.0817879769
C     -2.0278663113     -2.4394751024     0.6141394797
C     -1.4499218581     -2.9466303273     -0.6382503391
C     -2.9583323375     -0.168762288     0.8160924435
C     -3.044931011     -1.4840932051     0.2514694983
C     -1.753868705     2.0090864695     0.3570679617
C     -2.7092050132     0.9723704098     -0.0797855195
C     0.347787783     3.1723335559     -0.208644411
C     1.5993094207     2.7858766219     -0.8805323027
C     -0.8900947124     2.5880951818     -0.6536714
C     2.3804820211     0.9732047819     -2.3267603179
C     1.5823080664     2.1846479403     -2.0850046375
C     1.5171761051     -1.0003927652     -3.4560801261
C     1.785463217     0.3576349579     -3.4410346818
C     -0.4522914257     -2.228596195     -3.1885195309
C     0.1498466459     -1.2044715121     -3.9457862322
C     -2.3226324307     -2.6371714566     -1.6857464458
C     -3.2857344498     -1.651662921     -1.1283085361
C     -1.8449298188     -2.1430438389     -2.9332261645
C     -2.8882344995     0.7465369538     -1.4668050237
C     -3.2882350707     -0.5565708205     -1.9573470902
C     -2.5013532294     -0.8744387151     -3.1592436884
C     -0.9315393846     2.1333365209     -2.0497996305
C     0.3184850401     2.040790483     -2.8137668214
C     0.5127630749     1.0598600118     -3.7858250456
C     -0.4752355874     0.0827465911     -4.0902015109
C     -1.9682795266     1.2794748673     -2.4542485683
C     -1.7685194467     0.2606430477     -3.518481117


