58

 C     1.5995200914     -0.2534488491     4.3942963191
C     0.7678174585     -1.363774753     4.3281172588
C     1.2575137145     -2.3152228289     3.3359669519
C     2.6061784968     -0.445596269     3.3773516429
C     2.3656178126     -1.7136692853     2.668762806
C     2.6217728729     0.6938782984     2.5648046906
C     0.7906682306     0.9000398559     3.9831637908
C     1.4506496182     1.5600342264     2.9633171644
C     -0.5568661225     -0.9876467742     3.9042982259
C     -0.5720225073     0.433481819     3.658954255
C     0.1339110432     -2.7768593374     2.5842217254
C     -1.0211121784     -1.9151804236     2.9085917054
C     0.3225188019     -3.0788439318     1.2550722264
C     2.4458004292     -1.773109029     1.2206116288
C     1.5259085215     -2.6384827467     0.5608974042
C     2.9517741031     0.6394853148     1.195386639
C     2.8897952318     -0.6144000214     0.4479709632
C     2.7030915503     1.8650931916     0.5014729958
C     0.7232434722     2.2503008792     1.9386786056
C     1.4847995818     2.6626673655     0.8398212876
C     -1.2664340414     0.9131171438     2.5304146774
C     -0.6922456844     2.0083217619     1.7328122263
C     -1.8800767589     -1.4788314848     1.8954721893
C     -2.1556070739     -0.0349109562     1.8348699258
C     -0.7741290777     -2.977922931     0.3305194307
C     -1.9262644129     -2.211353022     0.6186321722
C     1.182166824     -2.4826614237     -0.8216359763
C     -0.2029309677     -2.9001423196     -0.9901595505
C     2.6672263856     -0.5423390922     -0.9973954989
C     1.7395303382     -1.4763733125     -1.6494466408
C     2.8950794429     1.9388807312     -0.8492387156
C     2.863600102     0.726234083     -1.6454098603
C     0.913877354     3.1231397227     -0.3730619075
C     1.8863380369     2.8608378821     -1.4032382669
C     -1.280856815     2.3798829397     0.4691204474
C     -0.4888630767     2.9350992152     -0.6348872932
C     -2.8387128216     0.4315866295     0.7335199792
C     -2.5221579954     1.7368328402     0.1380373837
C     -2.7228904774     -1.7130756869     -0.4992801092
C     -3.359751291     -0.4345367819     -0.322770572
C     -0.960927771     -2.4991983737     -2.0497387621
C     -2.3335290426     -2.0650090077     -1.8423876454
C     0.9540140711     -1.0938560756     -2.8454501908
C     -0.3434223799     -1.6777918889     -3.0814274987
C     2.1227927876     1.0547155222     -2.807654196
C     1.4958125233     2.3802780149     -2.6178320692
C     1.1447478948     0.2243952416     -3.3763274772
C     -0.9005032965     2.6745262444     -2.0290613204
C     0.119863516     2.2920763528     -2.9785627896
C     -0.0209658457     1.0605918119     -3.7268678018
C     -3.0178085659     1.720883375     -1.1566470597
C     -3.6288778135     0.403008336     -1.4291494156
C     -2.2033807417     2.1043097841     -2.2755888309
C     -2.6226977269     -1.1957181416     -2.938844468
C     -1.3949044379     -0.945019853     -3.6809132299
C     -1.2743325191     0.4789753533     -3.8852150559
C     -3.2620158748     0.0418588291     -2.7283628303
C     -2.4013429987     1.1104418353     -3.2786016757


