58

 C     1.5637853583     0.0265992863     4.2289226926
C     0.7570191903     -1.1731689603     4.2125706096
C     1.4570179502     -2.1862090661     3.5171685603
C     2.6732120639     -0.1816489565     3.3193700213
C     2.6306367998     -1.5225800507     2.9027702755
C     2.6196425516     0.8155734403     2.2806622658
C     0.7794678639     1.04999775     3.6606848651
C     1.4612768542     1.6538192814     2.5542819391
C     -0.5826672815     -0.8370685923     3.7736697812
C     -0.5775859101     0.6013460151     3.4266665457
C     -1.2538970929     -1.7137241504     2.9220189115
C     0.8239901667     -2.9541908919     2.5087775851
C     -0.5714596326     -2.83343604     2.307955843
C     2.701875666     -1.8867837114     1.5273959717
C     1.6611111166     -2.8752576994     1.3050227876
C     2.8953710726     0.5036365606     0.920698478
C     2.9325525089     -0.900548383     0.5169887256
C     2.5224155627     1.5093190882     -0.054273811
C     0.7362162488     2.2560558848     1.5122890174
C     1.4586746932     2.4725215751     0.2717768899
C     -1.3153639668     1.1174138718     2.3535735785
C     -0.7077785555     2.1284126135     1.4713066251
C     -2.1955889281     -1.1824104028     1.9501085506
C     -2.3220551521     0.2306235202     1.7494880019
C     -1.1423617612     -2.9739033388     0.9765583282
C     -2.2552869182     -2.0500284316     0.819185414
C     1.1024172443     -3.0521055949     0.0393374979
C     -0.3359302232     -3.1941526243     -0.1320242861
C     2.5074014528     -1.2157246134     -0.8480086126
C     1.580804731     -2.2866754538     -1.0593351991
C     2.7009935437     1.1850693307     -1.4259748418
C     2.5058372087     -0.1897354816     -1.811712618
C     2.1094348437     1.9833897953     -2.4426287389
C     0.7697693102     3.1269179595     -0.7697078925
C     1.1985747398     2.9605621034     -2.1240389282
C     -1.4047766072     2.5571091257     0.2725354066
C     -0.678666104     3.1598842819     -0.7842314741
C     -2.9712674759     0.6229661084     0.5807895512
C     -2.6552579443     1.9029582353     -0.0846823159
C     -2.7047738948     -1.5974724678     -0.453176518
C     -3.3395062816     -0.3204466213     -0.4402713866
C     -0.6877977999     -2.6333717725     -1.4191563262
C     0.5061476608     -2.1674285777     -2.0440078324
C     -1.9313555841     -1.9582819192     -1.6547130635
C     1.6159876734     -0.2089973794     -2.9918656604
C     1.4498463557     1.102014232     -3.4351496013
C     0.4964307984     -1.1338709362     -3.0160203945
C     0.0099694252     2.8252217844     -2.9919122434
C     -1.1295165038     3.0311584272     -2.2001494933
C     0.1694330979     1.6415635343     -3.7936400112
C     -3.1047404035     1.8426951503     -1.4005126603
C     -3.4823039028     0.4272321699     -1.6440648083
C     -2.3048713911     2.2917484663     -2.501508324
C     -1.972289913     -1.0968253832     -2.7915066114
C     -0.7664204174     -0.6624767633     -3.4683906527
C     -0.9355987366     0.7501730718     -3.8792415073
C     -2.8774576514     0.0272950672     -2.8107793328
C     -2.1907377193     1.1852465327     -3.4098895643


