58

 C     1.3707538881     -0.0028908298     3.5414437196
C     2.5629826618     -0.2797408018     2.9004857931
C     2.515308165     -1.6659211228     2.4254022398
C     0.5059806139     -1.2199111477     3.416324777
C     1.1945925947     -2.1862104119     2.6440659118
C     -0.7873776579     -0.8064264993     3.1149699764
C     0.6024639009     1.130324725     3.229981727
C     -0.7909955813     0.6655458213     3.2022109864
C     1.0549848691     2.0909910328     2.259718991
C     3.0094059767     0.5566985496     1.8385109544
C     2.3116440452     1.7755017256     1.5583196892
C     3.0952909253     -1.6952139963     1.1549651962
C     3.4149492378     -0.3333090754     0.7511409609
C     2.5464486928     -2.595909792     0.1998565521
C     0.4754262585     -2.8617312432     1.5795676609
C     1.242397254     -3.2255613613     0.4412099562
C     -1.6024139501     -1.492929543     2.1407495445
C     -0.968940429     -2.5840103793     1.4095345637
C     -2.7083095696     -0.7256381131     1.5539800691
C     -1.7462246829     1.3809213958     2.5682116637
C     -2.8053757712     0.6861007301     1.8386982728
C     0.0129986561     2.8939953577     1.5876139623
C     -1.376460212     2.6047468601     1.8523420776
C     0.2892167392     3.449400325     0.2985948398
C     2.4624975764     2.2606834791     0.2136173562
C     1.5332283473     3.1539774987     -0.3190171367
C     3.2733836752     0.0465860985     -0.6207364473
C     2.8698967374     1.3727415854     -0.877088745
C     2.6658642487     -2.3149137118     -1.171734589
C     2.9012260035     -0.9681557266     -1.5964945595
C     0.6301948055     -3.3954908296     -0.8699752085
C     1.5094472766     -2.8290881188     -1.8634467104
C     -1.5507196528     -2.9476686545     0.1501414538
C     -0.7302994192     -3.2683645534     -1.0140904877
C     -3.2462993147     -1.1407734892     0.294146545
C     -2.6964658295     -2.2824595096     -0.330488479
C     -3.5429219837     -0.1803940668     -0.771653532
C     -3.2198615819     1.585319541     0.8425143363
C     -2.3488471106     2.7527860491     0.8482166054
C     -3.4618903084     1.1799000818     -0.5077246331
C     -0.7085475548     3.4455477992     -0.7740471392
C     -2.0066814     3.0486305376     -0.5077766668
C     -2.6959742269     2.0716854083     -1.3806296169
C     1.3250325659     2.8511531483     -1.734675279
C     2.0718220385     1.7000888893     -2.0549390245
C     -0.0489351507     2.953903479     -1.9992622751
C     1.9283786712     -0.678618366     -2.6129881014
C     1.0279186065     -1.8306617738     -2.7215042632
C     1.4521305214     0.6447267601     -2.8152979434
C     -1.2684482036     -2.5084891118     -2.1524602356
C     -2.5360116345     -2.0285059081     -1.7563081899
C     -2.9666607582     -0.70921979     -2.0108070238
C     -0.3951318526     -1.654640184     -2.9160138285
C     -2.0356123922     1.5443313325     -2.4825568748
C     -0.6754643106     1.9668444723     -2.7898831845
C     0.0666476032     0.8086007071     -3.1872010378
C     -2.1475313088     0.1284029659     -2.7978212106
C     -0.8541112984     -0.3372882556     -3.2199139684


