58

 C     1.4729634978     -0.1028347306     4.8532568699
C     0.6760438014     -1.2466234961     4.8485764207
C     1.3076809411     -2.3695135681     4.2253916208
C     2.5782065738     -0.4279062876     3.9218860671
C     2.4780646174     -1.8011083866     3.5230271792
C     2.6070427569     0.5588095805     2.9064202743
C     0.6961584763     0.9182158411     4.1843448165
C     1.4485692465     1.4482869137     3.1266441863
C     -0.6330963216     -0.9524278167     4.1925414689
C     -0.6317393038     0.4136256286     3.794851677
C     0.4113404208     -2.7540253549     3.2008844747
C     -0.8308061847     -1.9494222331     3.2092985778
C     2.3506766519     -2.0821667538     2.1169960036
C     1.0920790454     -2.7843961675     1.9458094424
C     2.8920388019     0.2341251788     1.5403613033
C     2.6973898518     -1.1348621782     1.0808997739
C     2.6047991441     1.2473554     0.6090086933
C     0.8055473877     2.0878899398     2.0228758033
C     1.6224743503     2.2699046617     0.8965372532
C     -1.1962456762     0.7830606184     2.5246121724
C     -0.6071743581     1.876905786     1.767153385
C     -1.4324047239     -1.6113189977     1.9733305078
C     -1.8318867427     -0.2420104352     1.7162433997
C     0.3760875374     -2.6950387528     0.7450274781
C     -1.0291161279     -2.3392379426     0.7828212067
C     2.1865239351     -1.3439048214     -0.262433381
C     1.101715982     -2.2877839724     -0.4289785998
C     2.5201394936     1.0079048222     -0.7969891001
C     2.2632014501     -0.2892251701     -1.2942248774
C     1.0881050772     2.7549820748     -0.3314689536
C     1.8208270716     2.1314788833     -1.404649751
C     -1.1468522916     2.2353104858     0.483906812
C     -0.3094924647     2.9499953474     -0.4913948482
C     -2.3708428117     0.0997663676     0.4211187598
C     -2.2507920477     1.4645023944     -0.0543134676
C     -1.6986569055     -2.0926692313     -0.4334454763
C     -2.6058110724     -0.9594744924     -0.5506345333
C     0.3895631229     -2.3449272504     -1.6397154539
C     -1.0222755986     -2.5078260561     -1.6362302313
C     1.5716579314     -0.4060122743     -2.6120124392
C     0.7524444317     -1.5713200036     -2.8304126036
C     1.2845881291     2.0503778496     -2.6700204683
C     1.194676596     0.7543951844     -3.3491904222
C     -0.7615050289     3.1254767531     -1.8400742739
C     0.1077159022     2.7886827014     -2.9440725488
C     -2.7411738959     1.7762682547     -1.3706844985
C     -2.0594146599     2.7009291558     -2.2184983261
C     -3.0972979253     -0.6127954032     -1.8505873886
C     -3.2663874095     0.7319783574     -2.1967690108
C     -1.4888800465     -2.1094548193     -2.9232324156
C     -0.3575392964     -1.5332342778     -3.6853169021
C     -2.562088298     -1.273518068     -3.0567822051
C     0.0033343249     0.8121792206     -4.207960386
C     -0.6469535236     2.0896611511     -3.956184472
C     -2.0065082091     2.1443971891     -3.5806432845
C     -2.7652189177     0.9528541048     -3.5870925979
C     -0.809512137     -0.3433623463     -4.3443120382
C     -2.2419845312     -0.2409185778     -4.0655006731


