58

 C     1.2613334138     -0.0963358868     4.0646227064
C     2.3578879695     -0.3747771607     3.2895254997
C     2.1880584955     -1.706270688     2.6614711318
C     0.3460249723     -1.2697910228     3.9340613705
C     0.8999555483     -2.2025987544     2.9597635256
C     -0.9146625511     -0.7689520258     3.7625021823
C     0.4928785086     1.1136845998     3.825605978
C     -0.873252324     0.7123713468     3.7245506968
C     0.9568286406     2.0326839749     2.8591041254
C     2.8343006252     0.5250230692     2.2671860989
C     2.1732682914     1.7490594304     2.0939913465
C     2.6631656312     -1.6295203743     1.3430921073
C     3.1104214284     -0.2559252203     1.0904120175
C     2.0260231552     -2.3912594091     0.3188470846
C     0.0797274318     -2.7223129345     1.8898555967
C     0.7297047853     -2.9999607111     0.6043523091
C     -1.7626556134     -1.2311676796     2.7101505536
C     -1.3291516305     -2.3055142208     1.8712865027
C     -1.7109196754     1.1226228188     2.6810622443
C     -2.3548862286     -0.0686383045     2.1101318735
C     0.0198980018     2.6478528214     1.9464605153
C     -1.320008828     2.1771594866     1.7858386555
C     2.0198446145     2.2917352545     0.7612186831
C     0.7586575736     3.0205511498     0.758497618
C     3.0216406611     0.2858780433     -0.216147293
C     2.4706543822     1.6374207416     -0.4092292206
C     2.341202746     -1.9853551126     -1.0080108777
C     2.8619041525     -0.6733596279     -1.2541614742
C     1.4781400139     -2.2984471921     -2.1456007672
C     -0.1036928634     -3.2701256793     -0.5363605612
C     0.2582552496     -2.8756595351     -1.9028740574
C     -2.0607702424     -2.4151597222     0.6570165633
C     -1.4870853903     -3.0799837548     -0.4398456465
C     -2.8593831534     -0.0633414942     0.7839072746
C     -2.880357222     -1.328500567     0.1399061956
C     -1.9779582826     2.281512406     0.4782581128
C     -2.8123761791     1.1763358952     -0.0110639939
C     0.1054172124     3.2954606702     -0.4000695615
C     -1.3380255593     3.1130777764     -0.4966359638
C     1.8242891288     1.9926483001     -1.6977088846
C     0.7190592016     2.9326106082     -1.682689951
C     2.3909034745     -0.2521888687     -2.5474965726
C     1.5804268945     -1.2359227283     -3.119345701
C     1.8201878072     1.0560688058     -2.7627533471
C     0.4119022985     -0.5740325184     -3.6698859001
C     0.6598445743     0.8577405557     -3.6196974058
C     -0.9426994265     -2.3170139032     -2.5842478345
C     -1.9853175778     -2.4767949035     -1.6812640488
C     -2.8731645681     -1.4152804187     -1.3104697535
C     -0.8809369598     -1.1009455904     -3.3865554222
C     -3.010124483     1.0367079875     -1.4233584433
C     -2.8879887821     -0.2660002501     -2.066852143
C     -1.9690986641     -0.1454972719     -3.2169202258
C     -1.600767231     2.9596811799     -1.8744818208
C     -0.3169221372     2.8403671023     -2.614575523
C     -0.421893311     1.7491630784     -3.5393666178
C     -2.4384101866     1.9650407149     -2.3361362676
C     -1.749297853     1.2241757035     -3.4188732401


