58

 C     1.5211128663     0.0131883068     4.311244433
C     0.7148058437     -1.1887956318     4.1248440152
C     1.4144035173     -2.0777157674     3.3216841495
C     2.6486019838     -0.0844083402     3.3899606796
C     2.6499945433     -1.3553691828     2.8335314867
C     2.6193841356     1.0204439157     2.4495818596
C     0.7403159355     1.0530737681     3.8062504225
C     1.4385711271     1.7790688514     2.7624057062
C     -0.610043493     -0.818512339     3.6555012298
C     -0.5990392725     0.6155840092     3.4775108272
C     -1.3052577527     -1.6272601254     2.7071931085
C     0.8227794851     -2.7262867935     2.2044432145
C     -0.579012844     -2.6277261184     1.9125181364
C     2.7540836167     -1.5814917609     1.431489472
C     1.7619767995     -2.5963725461     1.1068982652
C     2.9732119997     0.8300237951     1.0629356071
C     3.0097607376     -0.5302148267     0.4945447613
C     2.5841198709     1.8778431209     0.2206721956
C     0.7300799754     2.4760961141     1.7514793066
C     1.5377065222     2.790009587     0.6250381138
C     -1.3327238903     1.2463557533     2.4177134453
C     -0.7023966     2.2691141681     1.5461589574
C     -2.3840127188     -0.9575220448     2.0733575845
C     -2.3876692327     0.4785150936     1.9039556994
C     -2.9726511019     -1.4964967018     0.9056376112
C     -1.0078496875     -2.8874316423     0.5276327101
C     -2.2825279545     -2.3906860538     0.0759045933
C     1.3475930782     -2.738953379     -0.1900353201
C     -0.0285664977     -3.0232156441     -0.4952842936
C     2.6203210814     -0.7302522812     -0.9056634745
C     1.9044880041     -1.9179541476     -1.231945648
C     2.5046556817     1.7349027008     -1.2363710141
C     2.4601914769     0.4242625683     -1.818325047
C     0.9350527802     3.2637366617     -0.5453692495
C     1.6402635455     2.7408656471     -1.7131057204
C     -1.2801592795     2.5515415117     0.2424799007
C     -0.4418892178     3.1546997115     -0.7690733618
C     -3.0013417923     0.7776946883     0.6083937706
C     -3.5103207934     -0.4255905253     0.0845001932
C     -2.446734899     1.7875775766     -0.2445343682
C     -2.5246251221     -1.9705650501     -1.3186862772
C     -3.3330739274     -0.7623630953     -1.270326783
C     -0.2500348247     -2.5882760591     -1.85888918
C     0.9639816977     -1.9708861066     -2.3127338253
C     -1.5237011548     -2.0944088794     -2.3201162713
C     1.6884010779     0.2937515039     -3.0144339762
C     0.9370175674     -0.9523482416     -3.2900528561
C     0.7184501105     2.5365980621     -2.7571607392
C     -0.6119442502     2.8671233158     -2.2069295677
C     0.8765897254     1.3727508216     -3.5360968874
C     -2.6315151062     1.5864517513     -1.6483702202
C     -3.0737605661     0.2883831129     -2.1706998692
C     -1.7140809803     2.1548208387     -2.6319731845
C     -1.5190509795     -1.1496153469     -3.4225211244
C     -0.2509658442     -0.6773603968     -3.9625078957
C     -0.3059548864     0.7781141062     -4.1159653541
C     -2.3493861199     0.0005238806     -3.3481634884
C     -1.557624047     1.1849641057     -3.7001264393


