58

 C     1.3186695516     -0.0524444722     3.8114013468
C     2.509261427     -0.2424020944     3.1239500378
C     2.4849469237     -1.5713127011     2.5159962174
C     0.4624381803     -1.2265944996     3.5182121027
C     1.1842519415     -2.1348221586     2.6794715602
C     -0.7994337397     -0.7837404661     3.1586540656
C     0.54509672     1.12499949     3.6314390308
C     -0.8347750933     0.6823795378     3.4085856965
C     1.043110384     2.1522985141     2.805952065
C     2.9290628567     0.6904404566     2.1117319586
C     2.2211041929     1.8893830873     1.9853353938
C     3.0745061184     -1.4913904515     1.2340855723
C     3.2829633663     -0.0752019503     0.91161893
C     2.6272330759     -2.3729545424     0.2690836815
C     0.5261591479     -2.7508203705     1.5634906244
C     1.3931911527     -3.1133792138     0.4880254393
C     -1.5206540619     -1.362495953     2.0332384455
C     -0.8771131667     -2.4089766264     1.2534976304
C     -2.5957400708     -0.5454368388     1.4606012807
C     -1.7138000931     1.473632395     2.7366586533
C     -2.7127663358     0.8563783776     1.8515797555
C     0.1251672721     2.9389609156     2.0109163215
C     -1.2579993381     2.7193404038     2.1131383909
C     1.962286462     2.4172051485     0.6684007561
C     0.6906019041     3.1193861563     0.6935338905
C     3.0139990275     0.3957941869     -0.3908535306
C     2.3916216815     1.7349385893     -0.5029238954
C     2.6556924169     -1.9842580439     -1.1247029338
C     2.7892178522     -0.6117274337     -1.4648661259
C     0.8663781652     -3.3818761625     -0.7968608594
C     1.6844398406     -2.7982781677     -1.8024782473
C     -1.3975341365     -2.7045272022     -0.0948619283
C     -0.5108767293     -3.194984693     -1.118782934
C     -3.105204918     -0.8757343205     0.1865557551
C     -2.5392895258     -1.9900961929     -0.5698968345
C     -3.5191549866     0.1473230743     -0.7640003427
C     -3.0661466768     1.8213252543     0.9066945538
C     -2.0838360337     2.9121221344     0.9778700273
C     -3.2968428635     1.5004606284     -0.4516910316
C     -0.1441301462     3.1932004954     -0.4740398656
C     -1.5782397567     3.1033324836     -0.3130416045
C     -2.3837022518     2.2809198494     -1.2494550342
C     1.6758764682     2.0527091116     -1.6942894147
C     0.4065087045     2.7057555953     -1.6791991938
C     2.0838071557     -0.2029721678     -2.6627747312
C     1.635355615     1.1178346914     -2.7720452162
C     0.8236257017     -2.3064039967     -2.8256702433
C     -0.5543368479     -2.6825861573     -2.4773885828
C     1.0792316019     -1.0421252716     -3.3322207902
C     -2.6709692484     -1.6784578689     -1.9480872463
C     -3.1516010956     -0.3088135665     -2.047429616
C     -1.6029131211     -1.8504104219     -2.8551891635
C     -1.8174313764     1.7365619532     -2.4340229894
C     -0.4441295038     2.0700769297     -2.7185377506
C     0.3586145649     1.1898432742     -3.4502221832
C     -0.0399993553     -0.1618226244     -3.7267482104
C     -2.277096987     0.4253629563     -2.8794745181
C     -1.348702023     -0.5449190804     -3.4879641257


