58

 C     1.5346602709     0.1071776416     4.2605473832
C     0.7399409192     -1.0809064224     4.0059675414
C     1.5050689892     -1.9725199801     3.2624300476
C     2.6919490093     0.0386428833     3.3688062613
C     2.7489436856     -1.2510583932     2.829427631
C     2.6763388675     1.1538768398     2.4569370884
C     0.7788425234     1.1981854913     3.8343337645
C     1.5366846385     1.9683184037     2.8718100186
C     -0.5476999908     -0.6896426246     3.4422621869
C     -0.5383589252     0.7469403579     3.3823584664
C     -1.1610238665     -1.4258053343     2.3827768062
C     0.9696694575     -2.6488819638     2.151029258
C     -0.4169486227     -2.5250934963     1.776300978
C     2.8914813883     -1.4626052233     1.4486775809
C     1.9469852525     -2.5310319814     1.0902302112
C     2.9006502968     0.9802387607     1.0516994289
C     3.0421480331     -0.3760343685     0.518895625
C     2.3715344086     2.0230618025     0.1487408662
C     0.8387518865     2.7206386106     1.9530746218
C     1.3603069511     2.9273025197     0.6396929246
C     -1.2561289273     1.4679490852     2.378689025
C     -0.6148054516     2.6172280258     1.8315325338
C     -2.1787448927     -0.7246517692     1.58043498
C     -2.2188228353     0.7431424819     1.5651196041
C     -2.7379983695     -1.4125716701     0.4892615089
C     -0.7775665656     -2.9723765945     0.4445965967
C     -2.0643324984     -2.6014316707     -0.0631867559
C     1.5858932278     -2.7549728707     -0.2087220934
C     0.2468786074     -3.1948619365     -0.5280699887
C     2.6979537978     -0.6451514258     -0.88928439
C     2.0443466517     -1.8829063194     -1.2484046378
C     2.3483118358     1.7855560504     -1.2476211096
C     2.4802280392     0.4268626883     -1.7742404416
C     1.4482601323     2.4882313317     -2.1012314498
C     0.2657581491     3.3764737332     -0.2027008729
C     -0.9587603355     3.0905251628     0.5301481128
C     0.3077303704     3.1693401335     -1.5710579176
C     -2.7246538989     1.3974328104     0.4020234578
C     -2.0570126686     2.5563419956     -0.1360896097
C     -3.4062954853     -0.7322916268     -0.6012824288
C     -3.2954810502     0.6609496391     -0.70150642
C     -2.3285446522     -2.6516255286     -1.437442475
C     -3.2028100276     -1.5148834261     -1.7851298369
C     0.0351861066     -2.8886182533     -1.9137515237
C     1.1043328429     -1.994197519     -2.3372652727
C     -1.2676758314     -2.7112734528     -2.3974685167
C     1.5992650506     0.3044699985     -2.9175045315
C     0.9834147273     1.5822281047     -3.0935911928
C     0.8265826037     -0.8673445865     -3.1650467155
C     -0.8848828142     2.707204487     -2.2978986949
C     -2.0538016678     2.427371621     -1.5924662204
C     -2.8764203815     1.2844641429     -1.9495577513
C     -0.4297780535     1.746353737     -3.3049556862
C     -2.7550513875     -0.938269878     -2.9569280089
C     -1.5107705985     -1.6475660627     -3.3403681924
C     -0.5405483092     -0.7012198855     -3.6673255016
C     -2.513490213     0.4694605184     -3.0426336644
C     -1.1896903898     0.6338252156     -3.6250725785


