58

 C     1.6912807661     -0.1079507841     4.4334895584
C     0.8587612803     -1.2112887286     4.525612094
C     1.2560075927     -2.2570987691     3.6054596007
C     2.5805891076     -0.3640702311     3.3242813037
C     2.33764797     -1.7278322055     2.8205427331
C     2.3992627901     0.6848349666     2.3959466792
C     0.8288241772     1.0289004576     4.0738601113
C     1.3303899813     1.5894140954     2.8901653075
C     -0.538710753     -0.847017522     4.2807061429
C     -0.5608225927     0.5844964642     4.0716062453
C     0.0661235159     -2.6546548041     2.9349691132
C     -1.0382550486     -1.7087588997     3.2806471348
C     0.1604319209     -3.0661177753     1.6257679323
C     2.3710559838     -1.9658317629     1.4228812565
C     1.3989871184     -2.8879646464     0.9049961934
C     2.5403889889     0.4958828319     0.9915112276
C     2.7164573452     -0.8632571207     0.5059011426
C     2.0056048001     1.5098409821     0.0935297514
C     0.4648276595     2.2111586968     1.9351685393
C     0.9212953682     2.3627514536     0.5584493708
C     -1.3944777465     1.0682249492     3.0756424273
C     -0.9267715211     2.0820798754     2.1626405338
C     -1.8962277829     -1.222815529     2.2127171951
C     -2.1917587571     0.1646228788     2.2477915597
C     -0.9212415792     -2.8743862852     0.660540092
C     -1.9183033254     -1.8881716432     0.8871537433
C     1.0859676627     -2.9654528257     -0.4913812075
C     -0.3628316555     -3.0552845089     -0.6399071951
C     2.5609506608     -1.0707025248     -0.8822712053
C     1.7874006917     -2.201525237     -1.4051377607
C     2.1629777821     1.3279479457     -1.3376301489
C     2.4353997068     -0.0041532089     -1.8102663126
C     1.5028406897     2.213396222     -2.2241306064
C     0.0081023615     2.931846201     -0.4125663185
C     0.4268140227     3.0488378     -1.757329616
C     -1.7977411702     2.0884517265     1.0193786343
C     -2.5402334128     0.8588137637     1.0395572925
C     -1.4334270448     2.6967864374     -0.1774360077
C     -2.4779162478     -1.2124606056     -0.2932882521
C     -2.8464343737     0.2033433345     -0.1817592139
C     -0.9718687287     -2.5129962208     -1.7618674278
C     -2.1091794451     -1.6468781994     -1.5988539099
C     1.1857680067     -1.792729958     -2.6476494393
C     1.7439156472     -0.4984306309     -3.0002155023
C     -0.1835760593     -2.0046683959     -2.8653798334
C     1.1301038125     1.7790667404     -3.5670286142
C     1.0552389495     0.3569002366     -3.8380430941
C     -0.5415241481     3.1553583132     -2.8511094187
C     -0.0451351745     2.4162005054     -3.9778598669
C     -2.2576553833     2.3529849048     -1.2957773925
C     -2.8725142275     1.0359984013     -1.3259881565
C     -1.8440980904     2.6875064017     -2.600711749
C     -2.1793008494     -0.7892097634     -2.780277049
C     -0.9758666424     -1.0083500809     -3.5737098289
C     -0.3403739551     0.0667816116     -4.221091795
C     -1.009816712     1.343440389     -4.2827042385
C     -2.6862743327     0.5126767984     -2.6779841084
C     -2.1510795998     1.5515135123     -3.5015576468


