58

 C     1.5068044486     0.0212377046     4.2507064533
C     0.7023160813     -1.1918707829     4.2131466165
C     1.407938292     -2.1350029117     3.456520133
C     2.6322107667     -0.1469681591     3.3132381951
C     2.6195272089     -1.4614803128     2.8945386115
C     2.5710276397     0.9000058904     2.2876967496
C     0.7240864919     1.0301583931     3.7138033884
C     1.4171856702     1.6860653759     2.6116951333
C     -0.6393382489     -0.8450587447     3.7732622855
C     -0.6494511394     0.5782978773     3.480609579
C     -1.2954411377     -1.6673778433     2.8478106283
C     0.810852517     -2.8517202693     2.3833570548
C     -0.5675414439     -2.7304465633     2.1489270157
C     2.7096711552     -1.7885298972     1.5092430761
C     1.6683736213     -2.7353336003     1.2058574365
C     2.8515228061     0.6343391594     0.9155923461
C     3.0319776165     -0.7722433706     0.5403670022
C     2.3280770507     1.5622786416     -0.0830118024
C     0.6865487376     2.3427499208     1.6264733381
C     1.3466611794     2.5427807754     0.3421137466
C     -1.3834451198     1.132920086     2.4230647499
C     -0.7771599794     2.2446782776     1.6687520553
C     -2.2274926129     -1.0993753035     1.9143429596
C     -2.3475650986     0.2967690725     1.6989375915
C     -1.0963971116     -2.8330201905     0.8128418442
C     -2.2727611138     -1.9886151362     0.7614991409
C     1.1584369527     -2.8641205553     -0.1208057848
C     -0.2872218963     -2.9747447429     -0.353234277
C     2.8056871038     -1.1388741767     -0.79166156
C     1.9607640349     -2.2576611114     -1.1188383756
C     2.3602452329     1.1926761277     -1.509145083
C     2.6323171342     -0.1540722617     -1.8448525547
C     1.5277434014     1.9211477715     -2.4565171564
C     0.6063079467     3.2685938028     -0.6240689703
C     0.7805915766     3.0115651951     -2.0303702765
C     -1.483311364     2.7622105703     0.5799524547
C     -0.78372034     3.4685785627     -0.4300151182
C     -2.93616276     0.7573614079     0.4311035361
C     -2.6043327083     2.0451403511     -0.0501495775
C     -2.7977817319     -1.5746583916     -0.4247179123
C     -3.3142841267     -0.2234972156     -0.5591347191
C     -0.8521614441     -2.5656550405     -1.651771491
C     -2.1727345653     -1.9923456958     -1.6807697377
C     1.4236310761     -2.003620037     -2.4159386449
C     1.93501289     -0.7919034983     -2.9309434426
C     0.02358714     -2.1213121804     -2.6965576414
C     0.7256749376     1.2208173274     -3.4933661184
C     0.871971717     -0.1422745007     -3.6369067698
C     -0.3155670323     -1.0103969376     -3.5749757391
C     -0.5315890691     3.0123276834     -2.6877683169
C     -1.4792698811     3.256505427     -1.7001578607
C     -2.5626062746     2.351066639     -1.4698866024
C     -0.605681946     1.8432277584     -3.5146967991
C     -3.2270795842     0.078004538     -1.9327066088
C     -2.5232789504     -1.0148566085     -2.6253826711
C     -1.5865358318     -0.42995443     -3.5171716142
C     -2.7623219536     1.3131228038     -2.4242890887
C     -1.7445179313     1.0323633186     -3.4556407872


