58

 C     1.1239345792     -0.1119430305     3.8739681477
C     2.2357187287     -0.4062879948     3.1464145528
C     2.0817975391     -1.7424675557     2.5425784205
C     0.231258817     -1.3050310649     3.8069878092
C     0.7620026156     -2.2130223184     2.7996793016
C     -1.04455796     -0.8367826567     3.7015572462
C     0.3379270329     1.0787449686     3.5764868832
C     -1.0056175788     0.6525856863     3.6005873608
C     0.7550926289     1.9971374726     2.5544392137
C     2.7220649117     0.4950980232     2.1341755314
C     2.0708151555     1.7646748947     1.9276396656
C     2.5632726973     -1.6536924983     1.243298294
C     3.1177896436     -0.2999689911     1.0221302674
C     1.8952476031     -2.3491987502     0.1883308268
C     -0.0684827969     -2.6750271448     1.7212485518
C     0.5567044754     -2.863853467     0.39597587
C     -1.9494368733     -1.3380238485     2.7295348242
C     -1.4954931486     -2.3261924701     1.778733843
C     -1.9493545066     1.0291530966     2.6358077232
C     -2.6889356625     -0.181568751     2.2482834224
C     -0.2992237383     2.6262763762     1.7363804823
C     -1.6347841348     2.0284047527     1.6726204786
C     0.1163809242     3.397749122     0.6023573998
C     2.3295864736     2.3700635116     0.6664482233
C     1.4560916172     3.3342684413     0.1517730291
C     3.1649756322     0.2320136266     -0.2938590404
C     2.8696425574     1.6031222555     -0.4704700268
C     2.3368078167     -1.9857510248     -1.1359541657
C     2.9084595646     -0.6379476112     -1.3822067892
C     1.6628839952     -2.4044307266     -2.2671634918
C     -0.2825719474     -3.0514537802     -0.8137507512
C     0.2999479134     -2.8596693164     -2.128568206
C     -2.2643408554     -2.4036684709     0.5751074611
C     -1.6726183493     -2.7936233741     -0.7126097488
C     -3.3320298619     -0.2340934611     1.0375462175
C     -3.2763553127     -1.4635687853     0.316692797
C     -2.3491986734     1.9523276464     0.3734249562
C     -3.1577213779     0.838903789     0.0761414068
C     -0.7040540953     3.4818788224     -0.5913827068
C     -1.7892607431     2.6463191976     -0.7610585543
C     1.448054218     3.1935884924     -1.319631359
C     2.2537361562     2.0728869328     -1.6898347168
C     0.1587029562     3.3162727109     -1.769677474
C     2.3567624983     -0.1664285312     -2.609368187
C     1.6861372981     -1.2893724247     -3.2163679614
C     1.8118280017     1.1619679529     -2.7069070186
C     -0.4399087579     -2.1995776745     -3.1571031023
C     0.4143925452     -1.1406748176     -3.714027664
C     -2.3862676344     -2.0816747677     -1.7620138819
C     -3.2520731648     -1.1593281699     -1.0945657362
C     -3.1503575785     0.2249434207     -1.2685438167
C     -1.6873840185     -1.6299902414     -2.8833053379
C     -1.6878346822     1.9939348267     -2.0938036045
C     -0.4028673501     2.3205035101     -2.6388989268
C     0.4222088217     1.3045482898     -3.2277025331
C     -0.2770980921     0.1177185591     -3.6411500225
C     -2.2950984713     0.7442419174     -2.319712123
C     -1.6072980522     -0.175014626     -3.1667133104


