58

 C     1.1768940172     0.1938647205     4.093531939
C     2.2855247686     0.0486874209     3.283953225
C     2.3213361935     -1.3393204958     2.7739128938
C     0.3459136378     -1.0253228939     3.8941282541
C     1.0461705597     -1.9234582152     3.0194232439
C     -0.9554194259     -0.6002682092     3.5981939447
C     0.3505617139     1.3192682385     3.9205383931
C     -1.0098138764     0.844263789     3.8014123669
C     0.592697433     2.255534668     2.862691897
C     2.5497486651     0.9227209411     2.1795562943
C     1.6689533219     2.0302471967     1.920373886
C     2.8750472553     -1.3241179796     1.4943385722
C     3.0019224471     0.0831108941     1.0837004595
C     2.4132247125     -2.257198926     0.5662958368
C     0.3562929098     -2.5899855648     1.9375727865
C     1.1565947346     -2.9287332541     0.8095506304
C     -1.6929278616     -1.2051867641     2.4867450771
C     -1.0626820665     -2.2775892234     1.7060978373
C     -2.6592033478     -0.3758977365     1.8485956505
C     -1.6897900587     1.6622842569     2.8875465671
C     -0.7172971184     2.6171367477     2.3431195443
C     -2.6054932658     1.0754385741     2.0031639149
C     -0.8586119747     3.0502882353     1.0449725349
C     1.4884543814     2.418603851     0.5164132527
C     0.2740087057     3.0751871925     0.1522047428
C     2.8676230378     0.439074319     -0.2706296736
C     2.2012206441     1.7119132736     -0.5548949626
C     2.5223984859     -1.9763056041     -0.828173146
C     2.8465718582     -0.6547319013     -1.2739459604
C     0.5850750194     -3.1968066392     -0.4931696305
C     1.4884150932     -2.7294178766     -1.5132233451
C     -1.598666636     -2.5571152834     0.4076633406
C     -0.7884110683     -3.0539812183     -0.676802611
C     -3.119230068     -0.6375396861     0.509824824
C     -2.6372430746     -1.7407774092     -0.1811226797
C     -2.8778540664     1.6703711296     0.720572672
C     -2.0350405853     2.6907552998     0.2484096684
C     -3.2862222452     0.6226225047     -0.1921953682
C     -0.2488541909     3.0402710239     -1.1975014235
C     -1.6768463745     2.7414529182     -1.1392326168
C     1.7965974586     1.9428069222     -1.9069973517
C     0.5205857845     2.566862833     -2.2294207949
C     2.4801364714     -0.3426048749     -2.6188866406
C     2.0377146041     0.9737379293     -2.9070003457
C     1.0053394065     -2.3066436859     -2.7618097139
C     1.6407737422     -1.2261103835     -3.3939913423
C     -1.3013434761     -2.5228937541     -1.9404003538
C     -2.4338691216     -1.6755377554     -1.6196488072
C     -0.4474404004     -2.1881993486     -2.9825017106
C     -3.0014793197     0.7142574664     -1.5521118582
C     -2.208798548     1.8184524669     -2.0537271258
C     -2.6208082874     -0.4727073781     -2.3062762943
C     -0.093889532     1.8067535628     -3.3308945191
C     0.8954538533     0.9245695421     -3.8376093173
C     0.6192707203     -0.4229036309     -4.0666152353
C     -0.6730030442     -0.9662464381     -3.7567288662
C     -1.4143920362     1.338443325     -3.1710511627
C     -1.6958905863     -0.0813791226     -3.357941393


