58

 C     1.475166963     -0.0486432602     4.0888952918
C     0.6955709353     -1.1883680637     4.0447082408
C     1.3573423752     -2.1109467705     3.0905742966
C     2.6175276796     -0.1705707292     3.1923791913
C     2.516293911     -1.4066820067     2.5133814499
C     2.7070311599     1.0455827074     2.4524579755
C     0.714315175     1.1083490192     3.6673433391
C     1.4307518946     1.7781124945     2.6526776016
C     -0.6734757805     -0.7726161936     3.7681819505
C     -0.6309174671     0.6811770537     3.4335575616
C     -1.4647443047     -1.6219227935     3.0281007681
C     0.5627814887     -2.8536286307     2.2565918775
C     -0.8776894077     -2.821815068     2.431841943
C     0.8349533511     -2.9086673691     0.7912642989
C     2.8168419243     -1.4695152721     1.0990740506
C     1.9215522762     -2.2204908824     0.1919460471
C     3.257701477     0.9812101873     1.1996182043
C     3.4501646894     -0.3163950692     0.5686628048
C     2.8296890276     1.9148462032     0.167607376
C     0.7536480606     2.3313914763     1.5189831634
C     1.5468983776     2.5658386428     0.2995613162
C     -1.3435706535     1.1964506581     2.3392991367
C     -0.6828445875     2.147524321     1.4165638924
C     -2.4099316386     -1.059705537     2.0815856222
C     -2.4193549102     0.3413148499     1.7959465585
C     -1.438881909     -2.9175371069     1.1590478196
C     -0.4229069357     -3.0130273512     0.1288976445
C     -2.5008759919     -1.9645992023     0.9717187129
C     -0.6694903084     -2.5042815713     -1.1680646288
C     1.7627541454     -1.836533366     -1.2144014122
C     0.4860367416     -2.0355438604     -1.9071189576
C     3.4152068862     -0.0705520695     -0.8301045084
C     3.1909029323     1.3513152526     -1.073241602
C     2.6337261069     -0.8079213426     -1.7271082983
C     2.4092002272     1.4956461013     -2.2331217032
C     2.1640387081     0.1423266015     -2.7463431483
C     0.8629261449     2.8576017557     -0.9081952934
C     1.3342655148     2.3913229154     -2.2064734069
C     -1.3458673492     2.5019782051     0.16496189
C     -0.5738498149     2.9219197228     -0.9577855286
C     -3.0369073067     0.7098642985     0.6002644261
C     -2.6332171609     1.9190701267     -0.1384452449
C     -2.8575170423     -1.550450202     -0.3168794665
C     -2.0271837853     -1.9868867561     -1.4747149096
C     -3.470775377     -0.2609296516     -0.3727625802
C     -2.2192601707     -1.3132568704     -2.692429979
C     0.2210966209     -1.2905321878     -3.1135522079
C     1.0286399437     -0.1059011968     -3.4531659034
C     -1.0872604394     -1.037791773     -3.5275198343
C     0.1874916667     2.1669164615     -3.0472754017
C     -0.9983018117     2.646861856     -2.3352469784
C     0.1068986467     0.9788128493     -3.8003194873
C     -1.1744769558     0.3694108595     -3.9747826389
C     -3.0850128626     1.7940008204     -1.4519831439
C     -3.5941699949     0.4200613163     -1.6099199005
C     -3.0690607907     -0.1178831624     -2.7623362075
C     -2.2491508978     2.088171469     -2.5919165523
C     -2.3347193964     0.9365170613     -3.4804855375


