58

 C     1.31229903     -0.0625854915     4.5402857128
C     0.5354869483     -1.1872050039     4.1103595637
C     1.3576634005     -2.0130581352     3.3235933981
C     2.6050509844     -0.1141996815     3.9127068285
C     2.6488454095     -1.3142837079     3.1230104463
C     2.7710803759     1.117181326     3.2321245523
C     0.6253735822     1.1403367383     4.1154026107
C     1.5458531097     1.9558085421     3.4274682505
C     -0.6830419406     -0.6960851415     3.5026321301
C     -0.5830966242     0.7705507787     3.4330627437
C     -1.2416435263     -1.3628573948     2.4200494352
C     0.8950715024     -2.5121220137     2.0807891019
C     -0.4542209439     -2.3778296678     1.706305521
C     2.8535087337     -1.2715310651     1.7332417232
C     1.874513485     -2.1671715177     1.0643864269
C     3.106756512     1.1707133424     1.8633002274
C     3.1687887522     -0.0279080489     1.0512371205
C     1.2051099343     2.5374460808     2.1967383906
C     2.3326625882     2.2761998414     1.304571118
C     -1.0057096944     1.4546181874     2.2331236596
C     -0.1096186207     2.4086705916     1.6110304734
C     -2.1857053704     -0.6148218184     1.6148290808
C     -2.0043708579     0.7948237332     1.4123766722
C     -2.8780453781     -1.3716187531     0.6579151452
C     -0.7838279618     -2.6559856464     0.3312778563
C     -2.1530884057     -2.507053648     -0.0075556269
C     1.5369994869     -2.0719378497     -0.2803817836
C     0.2103794806     -2.5483755794     -0.7095143008
C     2.8848318062     0.0563475737     -0.3653709423
C     2.230075047     -1.0599376391     -1.0856343121
C     2.172117416     2.3838215799     -0.0271935809
C     2.6716971687     1.3558141859     -0.925649849
C     -0.2659202057     2.6766098926     0.1792899858
C     0.9202874956     2.8478751609     -0.5919414823
C     -2.4173576292     1.3552401403     0.1170544236
C     -1.4785810393     2.2776900657     -0.5405924623
C     -3.6723460549     -0.7407751963     -0.2977559636
C     -3.3489156337     0.6189014868     -0.6686286998
C     -2.5840575002     -2.5679003149     -1.3269804607
C     -3.63612942     -1.5545845393     -1.4901213902
C     -0.2355632583     -2.3647831106     -2.0793415613
C     -1.6408779354     -2.3947244401     -2.3887594774
C     1.7899447066     -0.861346716     -2.3944518215
C     0.6042648804     -1.5656438008     -2.9455230078
C     2.0410351886     1.5536744097     -2.1759226177
C     0.9603766938     2.55217553     -1.9862782904
C     1.8014432978     0.4528049055     -3.0041549787
C     -1.4654390582     2.3147160841     -1.9659189573
C     -0.2209014481     2.441765368     -2.6978234534
C     -3.2513174098     0.6125833414     -2.1293625835
C     -3.3583872661     -0.7794267511     -2.5959317634
C     -2.2188459839     -1.379234463     -3.2958841468
C     -2.3289006268     1.4302578008     -2.7555094183
C     0.0436778779     -0.7901161045     -3.9797910422
C     0.7042729869     0.5047401527     -3.9085812252
C     -0.2737358418     1.5201898747     -3.8165856761
C     -1.3778720374     -0.5462492334     -4.007248422
C     -1.5519502183     0.8997957492     -3.853773271


