58

 C     1.5596799331     0.0784896308     4.1821997833
C     0.7802017871     -1.1326042818     4.2167924226
C     1.4995827196     -2.1521912368     3.5308194301
C     2.6459724373     -0.1223853435     3.2720231425
C     2.6521166748     -1.495582142     2.9076868674
C     2.5507500293     0.8498721704     2.2112463225
C     0.7377186529     1.1092538489     3.6337227537
C     1.3786144552     1.6963548553     2.5061070767
C     -0.5537635054     -0.8147807118     3.7683072429
C     -0.6032040297     0.6360806327     3.4503938208
C     -1.2139995368     -1.7089625815     2.9093040612
C     0.8764184167     -2.9493798554     2.5332322548
C     -0.5088234296     -2.8303974747     2.3086765019
C     2.7482441017     -1.8905180575     1.5510893914
C     1.7410087265     -2.9306778096     1.3381353786
C     2.7923866173     0.4955107251     0.8672440236
C     2.9486334844     -0.9232728819     0.5177364198
C     2.323256581     1.4423411517     -0.155385242
C     0.6132268851     2.275123447     1.4856168463
C     1.2609757008     2.4243197987     0.1876386795
C     -1.3841550832     1.1458192486     2.4042392206
C     -0.8313634001     2.180784614     1.5296005467
C     -2.1228861182     -1.1869272625     1.9207468634
C     -2.3419582805     0.2307120444     1.7764061346
C     -1.0456787369     -2.9714048804     0.9633531835
C     -2.132129878     -2.0460786097     0.762655897
C     1.2182447797     -3.1427578497     0.0791793394
C     -0.2224692538     -3.2262258253     -0.127164625
C     2.6242949363     -1.3163800979     -0.8438008103
C     1.7582554076     -2.4370346304     -1.0505942001
C     2.4998445076     1.1047660836     -1.5007632671
C     2.6134112167     -0.3183389353     -1.8581678924
C     1.7475427315     1.7683070801     -2.5488781398
C     0.5475734477     3.0642935723     -0.8204682054
C     0.8326234054     2.7961237624     -2.2255524297
C     -1.5950252704     2.6585387758     0.3926591847
C     -0.8949001434     3.3071058373     -0.6859171993
C     -2.9873120788     0.6276739765     0.6187708689
C     -2.8183162137     1.9717520881     0.059609905
C     -2.4841600595     -1.5502014475     -0.5181363754
C     -3.199851558     -0.3022098592     -0.4927610298
C     -0.5240730928     -2.6715586356     -1.4300838203
C     0.7286149357     -2.372772499     -2.0718255396
C     -1.6778260079     -1.8619165431     -1.6874104887
C     1.8784436627     -0.4976953103     -3.0467897018
C     1.3680809003     0.7819616961     -3.5019657447
C     0.7974659953     -1.4187715864     -3.0782163884
C     -1.6308040525     -0.9064751696     -2.820367479
C     0.0156191342     0.6481350244     -3.9052474562
C     -0.4019429044     -0.7023049102     -3.5040174987
C     -0.3799083827     2.882627849     -2.9342566639
C     -1.4331486976     3.3029332225     -2.0077351365
C     -0.8511356089     1.7580867633     -3.7206658276
C     -3.2614542296     1.9113162414     -1.2787397886
C     -3.3234538196     0.4654638736     -1.6340794774
C     -2.5611034164     0.2208169489     -2.8233972032
C     -2.5754615429     2.5435477561     -2.3034431748
C     -2.1784939221     1.5016936895     -3.3093627578


