58

 C     1.2141188199     -0.0038832188     3.8503087046
C     2.3321024358     -0.312712659     3.1350948199
C     2.2252400991     -1.7001192277     2.6191058266
C     0.3563387827     -1.2219632373     3.8437847956
C     0.9112643765     -2.1626765202     2.8711164428
C     -0.9327266385     -0.8020906968     3.7447182185
C     0.3986021576     1.1201323857     3.4559107098
C     -0.956268818     0.6720409254     3.5859290598
C     0.7398025815     1.8929115717     2.3015837723
C     2.8007395897     0.5049805127     2.0611817449
C     2.0320116436     1.613716506     1.6158950418
C     2.8075033279     -1.7429491251     1.359846998
C     3.3908358988     -0.4129041937     1.0962264757
C     2.1507529113     -2.4518878776     0.2894541711
C     0.1028529021     -2.6234285118     1.7703572675
C     0.7443335685     -2.803147716     0.4613049226
C     -1.8354160645     -1.3677924753     2.7910551402
C     -1.347930201     -2.3257705529     1.830927622
C     -1.9612220404     0.9837892089     2.6817959924
C     -2.6689971005     -0.2704431658     2.3496819288
C     -0.3704184459     2.4453789982     1.5174197198
C     -1.7377680118     1.9586667405     1.6584147529
C     -0.0415368268     3.081558169     0.2738712103
C     2.2036244986     1.9932546883     0.2027106443
C     1.2214210599     2.7835604482     -0.4176346714
C     3.5938698832     -0.0342585953     -0.2032684732
C     3.0078258935     1.2133611556     -0.6880070199
C     2.670514565     -2.1616598512     -1.0235682208
C     3.4683353403     -1.0117437134     -1.226128288
C     1.8443587935     -2.2954163891     -2.2070123684
C     -0.1013149864     -2.8050640301     -0.7664614995
C     0.4833525026     -2.4652184471     -2.057195229
C     -2.1109935623     -2.4111028124     0.6309617267
C     -1.4775975816     -2.6051806921     -0.6670183285
C     -3.3622915878     -0.3633904913     1.1662984314
C     -3.2035986832     -1.5500503857     0.4135369253
C     -2.6481599738     1.9449059914     0.4893789046
C     -3.4244139487     0.7704556235     0.234208948
C     -1.0114807444     3.3656219101     -0.6845670157
C     -2.2865896277     2.7234002569     -0.6612281925
C     0.9524676211     2.7178012112     -1.8348486784
C     -0.3955890822     3.1543786031     -2.0102180637
C     2.642096706     1.0310542466     -2.0740657744
C     2.9675728626     -0.3219134769     -2.4196609389
C     2.0510543446     -1.1282905384     -3.0660954804
C     1.4742529273     1.6518551945     -2.6264740278
C     -0.2077807737     -1.5150433951     -2.9715785276
C     0.7747472361     -0.5941259694     -3.4452778721
C     0.5132562626     0.818802411     -3.3995855549
C     -2.2363440593     -1.8323174885     -1.6804829285
C     -3.2611852928     -1.186055484     -0.993494638
C     -3.5035186304     0.2184742825     -1.1041645235
C     -1.5395307006     -1.1290751592     -2.730371357
C     -2.5052343106     2.2224740982     -1.9900003325
C     -1.2735558374     2.4269354007     -2.7736296219
C     -0.871095998     1.17952862     -3.3665374942
C     -2.9067938362     0.9030550115     -2.1854357088
C     -1.8958962471     0.219581946     -3.0280700489


