58

 C     1.4156203707     0.0755481685     4.2231326799
C     0.6217040064     -1.1108362133     3.9819839335
C     1.3981347705     -2.0296081512     3.2560883957
C     2.6048777492     -0.0526503549     3.3803723944
C     2.6267985023     -1.3252964361     2.8108057972
C     2.6856204293     1.0600062002     2.4695833969
C     0.6925731467     1.1195900872     3.6297772071
C     1.4939114139     1.8471006203     2.6817397674
C     -0.675134466     -0.7482084636     3.4274275703
C     -0.6298665119     0.6746021115     3.1801692991
C     -1.3282696668     -1.5784972977     2.4962549383
C     0.8445525103     -2.6937553972     2.1521863215
C     -0.5550345266     -2.6907254901     1.9377664495
C     2.7282345864     -1.5157798819     1.3965299826
C     1.7087418132     -2.4337241833     0.9924303496
C     3.1246765875     0.8897283254     1.1241603378
C     3.0572750328     -0.4313417184     0.5093365093
C     2.877962394     2.0236874085     0.2940766078
C     0.8658199338     2.5613972679     1.6274712834
C     1.713641314     2.9043489928     0.5547414587
C     -1.2640946708     1.2603171023     2.0640546109
C     -0.5737821955     2.3650717631     1.3735910273
C     -2.3441497501     -0.9621897428     1.6443099065
C     -2.2720852735     0.4664722467     1.3645688218
C     -2.9835677382     -1.8210840978     0.6832937255
C     -0.9501157047     -3.1904921278     0.6782743706
C     -2.2487603093     -3.0035641159     0.2364513306
C     1.1958873859     -2.472721202     -0.34266759
C     -0.0697770776     -3.0753051822     -0.4920382408
C     2.6823950842     -0.5373687764     -0.9025390006
C     1.6709789868     -1.520468107     -1.3367109156
C     3.029336356     1.9151374089     -1.0750113116
C     2.880944772     0.624548826     -1.7043894634
C     1.1991822893     3.3462138242     -0.7061789796
C     2.0791348559     2.8376348898     -1.727986222
C     -1.0535169214     2.7676177737     0.120617667
C     -0.1894686209     3.284170621     -0.9208122926
C     -2.8256009319     0.9749306487     0.1041874639
C     -2.1835618878     2.0884732716     -0.5056824421
C     -3.6637564807     -1.3048671625     -0.4327370163
C     -3.5446571676     0.0751916864     -0.7794536834
C     -2.2658768401     -3.007997274     -1.2168520031
C     -0.9040602072     -2.8753222778     -1.6577334243
C     -3.2168081129     -2.0727746119     -1.6114813117
C     0.8030887495     -1.2489806533     -2.4751117429
C     -0.5253425348     -1.8709255236     -2.6059594468
C     2.0753105199     0.8313109267     -2.8664198833
C     1.5688813873     2.2221908735     -2.8464096657
C     1.0168706221     -0.0104502204     -3.1858931729
C     -0.7171820726     2.7960254697     -2.1855021778
C     -2.0032917984     2.1770799218     -1.9350744566
C     0.1631203996     2.1954131471     -3.1128188428
C     -0.1396324312     0.8389055879     -3.55630599
C     -3.3305353345     0.1707703211     -2.1986096601
C     -2.9175796087     -1.1683147567     -2.6414913037
C     -1.6150738209     -1.0801603513     -3.186475021
C     -2.4326856291     1.1023570616     -2.7303782745
C     -1.4020076477     0.3375672072     -3.4566600791


