58

 C     1.0971145989     0.0514581613     4.1122950097
C     2.2699610051     -0.2433264305     3.499111788
C     2.2248474193     -1.6778126618     3.0978485403
C     0.2408553536     -1.1767962105     4.0826690971
C     0.8584340354     -2.1333690833     3.2129276695
C     -1.0397351168     -0.7498135811     3.8642606699
C     0.2952717001     1.1772030625     3.6835006876
C     -1.0427676571     0.7363541497     3.776050236
C     0.7008624976     1.9494163973     2.5080018112
C     2.7337973248     0.5163280184     2.3345990869
C     1.9145461613     1.5729639712     1.7604844218
C     2.911975561     -1.784881452     1.922778771
C     3.3632626541     -0.42951455     1.4998199364
C     2.3581273141     -2.4207768017     0.7883610296
C     0.1613498429     -2.579156701     2.0231757532
C     0.9777451504     -2.8388616773     0.8179043139
C     -1.8187227405     -1.2381570292     2.7774747786
C     -1.2363238499     -2.1423225729     1.8175853032
C     -2.0318421229     1.1113137773     2.858376291
C     -2.6260239946     -0.1176530147     2.3136230857
C     -0.351688548     2.5368839226     1.7666279901
C     -1.744175697     2.1607065089     1.9760504379
C     -0.208770598     2.8866518538     0.3747436948
C     1.9742884705     1.7765291718     0.313112487
C     0.9339351422     2.5313211648     -0.3918305473
C     3.2655136312     -0.3666125001     0.1202664742
C     2.8256833024     -1.6698021649     -0.3626259198
C     2.7563550175     0.8300853634     -0.502301511
C     2.2396236392     -1.7723849     -1.6218889596
C     0.3406712947     -2.8834856998     -0.4506275884
C     1.0275980155     -2.5245169424     -1.7114191202
C     -1.8144858645     -2.1164489022     0.4641984913
C     -1.0324499218     -2.5977328751     -0.6304225748
C     -3.1319535389     -0.0975902411     1.0383593205
C     -2.8232617702     -1.1647243169     0.1197627789
C     -2.4231225047     2.2297354159     0.7176558289
C     -1.5297574884     2.8759504078     -0.2290387928
C     -3.2025168671     1.1440515939     0.2803902055
C     -1.6833213782     2.6835156144     -1.5771507241
C     0.784595706     2.4754067363     -1.8657736766
C     -0.524072264     2.6647789785     -2.4526819638
C     2.5146200013     0.7121549338     -1.8694825932
C     2.4006739407     -0.632198048     -2.4906589612
C     1.6871083376     1.6329264257     -2.6091262544
C     1.5796394724     -0.4919752996     -3.5913221475
C     1.256371463     0.9380252539     -3.7786117263
C     0.0572870907     -2.2000639527     -2.6886268008
C     -1.2269860069     -2.1392096362     -2.0013165269
C     0.3520088657     -1.2511239611     -3.7131220194
C     -2.9374860294     -0.6236090003     -1.2156808462
C     -3.199081848     0.7937988506     -1.1089139728
C     -2.6461512515     1.6804068082     -2.0621797949
C     -2.1703852263     -1.1335040004     -2.3188538281
C     -0.9258553774     1.9143355418     -3.6032664965
C     -0.0554103876     1.0131541922     -4.2199226098
C     -0.6563190534     -0.3541844987     -4.1507426101
C     -2.1462176078     1.183752754     -3.2669054649
C     -1.8752393084     -0.2276003045     -3.4375219383


