58

 C     1.5481459723     -0.0868329967     4.0073928622
C     0.7388586243     -1.2608699221     3.9199652329
C     1.3283830224     -2.1774581185     2.9711862325
C     2.5029157439     -0.1472729475     2.9918370357
C     2.3642660046     -1.4212642047     2.2681267179
C     2.4731040785     1.078549042     2.2386110687
C     0.6933167014     1.0507659557     3.6773923679
C     1.3278518283     1.852433653     2.6917904623
C     -0.6267848188     -0.8629582002     3.7358089253
C     -0.622397857     0.6027717017     3.4423697812
C     -1.4629270906     -1.7043401483     3.0161326845
C     0.477098256     -3.0075311679     2.2459317806
C     -0.9389069186     -2.9097361847     2.4666738429
C     0.6750533663     -3.1808644612     0.8175510468
C     2.4639762004     -1.4505338087     0.8640103846
C     1.6331332061     -2.4191364808     0.1112388156
C     2.8410871486     1.081783678     0.882832061
C     2.9307991655     -0.2125631494     0.1654076954
C     2.4582873192     2.2495445858     0.174285051
C     0.5575850485     2.5644922008     1.7482625675
C     1.3133532102     3.0057537288     0.6224467514
C     -1.400585913     1.1437051761     2.3593752253
C     -0.854556841     2.2458345076     1.5718051925
C     -2.4077520303     -1.1439604906     2.0396996277
C     -2.4166508441     0.2585850359     1.7467647791
C     -1.6123388155     -3.1423316708     1.2229882897
C     -0.6511668618     -3.4107536806     0.2215225973
C     -2.5744392494     -2.1061775579     0.9842882113
C     -0.9163379612     -2.9998069797     -1.0829492285
C     1.4191905046     -2.2149685086     -1.3337157889
C     0.1638685038     -2.5600264503     -1.9264867398
C     2.8740676385     -0.1635828863     -1.2202615276
C     2.1730350602     -1.2047175776     -1.9920276236
C     2.4879398394     2.2970982703     -1.2768265498
C     2.7500986429     1.1041276575     -1.9653865776
C     0.6662075174     3.4963242553     -0.5340247828
C     1.4305622243     3.1429018329     -1.7220275628
C     -1.4807345932     2.6046226227     0.2859019449
C     -0.7001548319     3.2671054218     -0.7474649966
C     -2.98662451     0.6317969781     0.5067279481
C     -2.5914497754     1.8510588514     -0.1665260351
C     -2.8756481453     -1.6961660368     -0.3570849822
C     -2.1221765615     -2.281353211     -1.4306692528
C     -3.3030177118     -0.3474424497     -0.5101591964
C     -0.4238977189     -1.753204621     -2.9687006079
C     -1.8282276523     -1.5329231259     -2.6334332179
C     1.6593813289     -0.5828602778     -3.1474523694
C     1.9767727432     0.8360130163     -3.1282996712
C     0.3200287803     -0.7536832397     -3.5902039189
C     0.5155434774     2.7300179808     -2.717457989
C     -0.8324208377     2.9052761705     -2.1753710473
C     0.8185432292     1.5725377684     -3.4871562108
C     -0.2420370844     0.5933791641     -3.7842723863
C     -2.8123291454     1.6604403974     -1.5770038785
C     -3.1576384513     0.3001797537     -1.7708592327
C     -2.3637579212     -0.2576159899     -2.8332212375
C     -1.8362126836     2.0335153044     -2.5489416173
C     -1.5412815813     0.8323218639     -3.3703429444


