58

 C     1.0794526165     0.2297782642     4.1418172403
C     2.265077064     0.0673540207     3.441002684
C     2.3223681196     -1.3210425102     2.9772751388
C     0.2396767323     -0.9820773667     3.8747981446
C     0.9828225499     -1.86174394     3.0639481763
C     -1.0324069571     -0.5351518193     3.4693922284
C     0.2968942629     1.3542237684     3.9102716325
C     -1.0773379531     0.8945912951     3.7025612698
C     0.6086415319     2.267353305     2.8537939955
C     2.5942494083     0.9083278412     2.3287971802
C     1.7204762883     1.9952577523     1.9625623914
C     3.0011633728     -1.3580309971     1.7715811069
C     3.1360238399     0.0357799532     1.2963849134
C     2.6479296082     -2.3583808441     0.8581089986
C     0.375831212     -2.4689767606     1.8739892318
C     1.2933703708     -2.9020609335     0.8930479397
C     -1.6730871411     -1.083947314     2.2718528016
C     -0.9786127826     -2.0732067532     1.4548195066
C     -2.6215714092     -0.2262230943     1.6458746971
C     -1.7040539237     1.7461221445     2.7963559728
C     -0.6739701829     2.6620258913     2.2852542735
C     -2.6219286411     1.1965675033     1.8921078501
C     -0.7577261184     3.0801133399     0.9809055647
C     1.5761835075     2.305279989     0.5256713581
C     0.3976998833     2.990466727     0.1061279805
C     3.0389237628     0.3266204858     -0.0806973138
C     2.2797268297     1.5156415688     -0.4930021889
C     2.9501973817     -2.1293508463     -0.4876537817
C     3.1176878596     -0.8050924786     -0.9891359277
C     0.8778239213     -3.1276195502     -0.4797815342
C     1.9697428018     -2.7834360899     -1.3212657133
C     -1.3997744474     -2.2811813258     0.0489848974
C     -0.453427079     -2.8523080144     -0.9015090244
C     -3.046939769     -0.4388507921     0.2868440433
C     -2.5228911969     -1.509349371     -0.492553925
C     -2.869015618     1.8442366982     0.6308251055
C     -1.945206685     2.7976381967     0.1771749337
C     -3.3330923201     0.847178637     -0.3044541993
C     -0.0967480815     2.9320506178     -1.2427010693
C     -1.5503759859     2.8286885695     -1.216063694
C     1.8122038482     1.5538205003     -1.8398551906
C     0.6210359377     2.2548575418     -2.2203712615
C     2.508763547     -0.7606639657     -2.3037476113
C     1.7949517462     -2.0331778084     -2.5105094191
C     1.9058846163     0.4041743493     -2.7338533006
C     -0.5940725682     -2.5673362613     -2.3238304175
C     0.5545895568     -2.0391467602     -3.1000243308
C     -2.6945073148     -1.3697618735     -1.9250847483
C     -1.7314031271     -1.9395532526     -2.8090117512
C     -3.1678625944     1.037926215     -1.6804873402
C     -2.2059283246     2.0482865527     -2.1600446401
C     -3.0432438815     -0.0974859299     -2.4902800287
C     -0.0679018147     1.5351910837     -3.2958304488
C     0.7249162828     0.3680537689     -3.6034194203
C     0.0851039813     -0.872272301     -3.8348572077
C     -1.3388521067     -0.9240227576     -3.8178009204
C     -1.4788421644     1.4691312813     -3.2864804075
C     -2.0986322333     0.2047138394     -3.5778244207


