58

 C     1.5931491623     -0.0972825045     3.9902340775
C     0.7788309748     -1.2788661629     3.9249912129
C     1.3425975203     -2.1849411826     2.9537935067
C     2.5104682712     -0.1563002373     2.937824682
C     2.3697097687     -1.4287922021     2.2317656004
C     2.4578191473     1.0737655355     2.1807716114
C     0.7314842326     1.0323982272     3.697820947
C     1.3204990466     1.8312403208     2.6723655036
C     -0.5925658981     -0.8884789264     3.8011740966
C     -0.6045760081     0.5735433924     3.5437251437
C     -1.4517087207     -1.7160511904     3.0724097009
C     0.470719608     -2.9979496119     2.2310503546
C     -0.9332366472     -2.8925640549     2.4682695518
C     0.6562508834     -3.1707401173     0.7910004229
C     2.4609733819     -1.4640467199     0.827726369
C     1.6300566255     -2.4338114039     0.0802423959
C     2.7713714976     1.0708195635     0.8212952096
C     2.9064632431     -0.2259489555     0.1231291326
C     2.2835808608     2.1923225856     0.0777014308
C     0.4984307199     2.5353509924     1.7633742951
C     1.1335043203     2.9012504608     0.5358423525
C     -1.4478861666     1.1396141651     2.5339979309
C     -0.9348695741     2.271256905     1.7614092549
C     -2.4149542662     -1.1361945385     2.1364508795
C     -2.4702796678     0.2583278662     1.9137388338
C     -1.6209510113     -3.0848983005     1.2107864383
C     -0.6671372949     -3.3661355652     0.1998658512
C     -2.5601117866     -2.0466253044     1.0048570774
C     -0.9231403478     -2.9388395408     -1.0993799086
C     1.4311201704     -2.2485668346     -1.3675921124
C     0.1762150063     -2.5571010978     -1.955663327
C     2.8805372375     -0.1945310165     -1.262436926
C     2.2269213153     -1.2609839179     -2.0429222646
C     2.3015056121     2.2057151091     -1.3634461963
C     2.7474888511     1.0563602103     -2.0341265303
C     0.389926297     3.3103671208     -0.6404580022
C     1.1417110364     2.9399314077     -1.8350668655
C     -1.6512153217     2.6738409365     0.5858447842
C     -0.9867354105     3.2146031852     -0.6108335365
C     -3.0694348819     0.6719121065     0.6760508248
C     -2.7703789572     1.9472974465     0.1516054025
C     -2.8101566811     -1.5610063523     -0.3329923425
C     -2.056521173     -2.1253985434     -1.4158049456
C     -3.2081201658     -0.2141652568     -0.4544360058
C     -0.3756204549     -1.7417430025     -3.0112104733
C     -1.7076594781     -1.3469202123     -2.5972328801
C     1.795589331     -0.702672314     -3.2492881246
C     2.1374933443     0.7279301078     -3.2748897354
C     0.4419772863     -0.8579767458     -3.7209888855
C     0.4580377146     2.4962779201     -2.9781179093
C     1.0208825468     1.4208657135     -3.739063171
C     -0.0477010095     0.4513000353     -4.0245108162
C     -1.6901628958     2.6871713982     -1.7918837398
C     -2.7682097145     1.8891219441     -1.3022050307
C     -2.9367521019     0.5505257949     -1.6782049756
C     -2.1308227254     0.0044236239     -2.750467963
C     -0.9841393867     2.2695759802     -2.9092937546
C     -1.2502672761     0.9224217682     -3.458598453


