56

 C     1.5085698996     0.0760692668     3.8947459371
C     0.6834531321     -1.1188722825     3.7797649983
C     1.2117891848     -1.9201014166     2.7406619642
C     2.5729277302     -0.0201053211     2.9355678588
C     2.5132218187     -1.3348662806     2.3603773589
C     2.5416548468     1.0908772213     2.0461559789
C     0.6911857593     1.1399228074     3.5118796643
C     1.2771345434     1.7805414026     2.3367741917
C     -0.6839905596     -0.7195936076     3.7120570949
C     -0.6883892224     0.7121991545     3.464322435
C     -1.5645233302     -1.527621447     2.9746823464
C     0.3517181422     -2.4717348599     1.681528445
C     -1.0343488729     -2.3852742734     1.8916748629
C     0.8278402242     -2.5738098667     0.2953661266
C     2.9778591105     -1.4987441658     1.091446656
C     2.240807814     -2.3072469674     0.0919034803
C     3.025225785     0.9371687483     0.7180897926
C     3.5444017956     -0.3658670632     0.3786669698
C     2.3977387785     1.7410938864     -0.3346815391
C     0.4621910423     2.2429521379     1.2987752688
C     1.0997378672     2.3931651457     -0.0317548866
C     -1.5782870349     1.2758708296     2.5169376163
C     -1.025694836     2.1015250486     1.4202582811
C     -2.7113312617     -0.9248175514     2.4854103423
C     -2.7702111971     0.4975526111     2.2673039809
C     -1.9621904372     -2.3486025624     0.7750986056
C     -3.0997878844     -1.5886171633     1.2246792947
C     -0.0762385918     -2.4163087739     -0.83408306
C     -1.5152088736     -2.2302023647     -0.5733398375
C     0.4691468268     -1.985642659     -2.1432816387
C     2.7404373634     -1.9706968354     -1.1513980695
C     3.5843996476     -0.7649289532     -0.9768480832
C     1.8864040008     -1.7639211092     -2.2823323495
C     2.6628619006     1.3800170593     -1.6925381766
C     3.2625224655     0.1053272992     -1.9835320638
C     2.3653800775     -0.5836938015     -2.9380889394
C     1.6878517213     1.6180200229     -2.7396962337
C     1.4844408166     0.3437040835     -3.4816933691
C     0.2732867294     2.7605153947     -1.1033064865
C     0.5949442974     2.4172306345     -2.480334652
C     -1.8180048496     2.2875589743     0.2426868152
C     -1.1831200783     2.7166654472     -0.9777684238
C     -3.4896419428     0.6715343252     1.0595056804
C     -3.6979851024     -0.6661030646     0.4155533467
C     -3.0599610404     1.5330481687     0.0692995995
C     -2.3402201191     -1.424729701     -1.5000007051
C     -3.3642408092     -0.5685527217     -0.9498108823
C     -3.3029240356     0.8579332177     -1.2343553422
C     -0.3531009662     -1.2286245631     -3.0319704515
C     0.1697463434     -0.0882675254     -3.7541478437
C     -1.7545227551     -0.9451039447     -2.7126771808
C     -0.6528567819     2.1438515744     -3.160574788
C     -1.7333677053     2.3923457465     -2.2393527883
C     -2.6885456808     1.3036319919     -2.3666961463
C     -0.8670759206     0.8970104185     -3.7661672222
C     -2.0931097659     0.3253182575     -3.2407437939


