56

 C     1.3477874776     0.1020123343     3.9035413254
C     2.4553753868     -0.0937150569     3.0593143562
C     2.2523978106     -1.3841017155     2.3992383241
C     0.451204396     -1.0763737461     3.7913339189
C     0.98181878     -1.932216793     2.79652166
C     -0.893267522     -0.6103587717     3.6654730934
C     0.5754447019     1.2471459531     3.7258909408
C     -0.842582     0.8271530714     3.6321996567
C     0.8540373854     2.1799449503     2.6829351896
C     2.8081947754     0.8425257016     2.0582067448
C     2.0088081003     2.016588535     1.821983704
C     2.6625637204     -1.3170591859     1.0646683769
C     3.2043352053     0.0346840099     0.893202935
C     1.9242667853     -1.9475916132     0.007500391
C     0.152903483     -2.5232037199     1.7755187944
C     0.6892671909     -2.6565149086     0.3990313695
C     -1.744609988     -1.2563172928     2.7717543112
C     -1.2539186569     -2.3505234457     1.940657121
C     -2.633339629     -0.4976869008     1.9182982067
C     -1.4530506731     1.5299552308     2.5967692256
C     -0.4289171087     2.4500733579     2.0609180818
C     -2.3924281963     0.8920389387     1.7010033372
C     -0.5058923347     2.8536342604     0.7522543179
C     1.9369159351     2.5313438063     0.4435464347
C     0.6989371636     3.0511252997     -0.0417332408
C     3.2656255392     0.5636240201     -0.3435933834
C     2.7888392006     1.9438457387     -0.5698101031
C     2.1198897511     -1.4386666509     -1.3492955881
C     2.9345168696     -0.2518448667     -1.5066117681
C     1.1109502799     -1.7087637782     -2.3784280272
C     -0.2233967605     -2.980724106     -0.6214703912
C     -0.0020451923     -2.5509558273     -2.0177576376
C     -2.1471409965     -2.4990123619     0.8282523091
C     -3.0287735718     -1.3518067347     0.8147419036
C     -1.6503768313     -3.0099373318     -0.3824776446
C     -3.4118261228     -0.7866853022     -0.406006987
C     -2.5204248128     1.4136251401     0.3281330262
C     -1.574270094     2.4101014011     -0.1107828029
C     -3.0879928082     0.5985045099     -0.6756988914
C     0.2997402974     2.9585161388     -1.4174248314
C     -1.0892258151     2.4942170032     -1.4593935026
C     2.4694655225     2.0167060794     -1.9204658118
C     2.6555775499     0.6715517719     -2.5338384652
C     1.2076951788     2.5117682309     -2.3918082395
C     0.8585127722     -0.7373733452     -3.410277297
C     1.6399950872     0.4611536656     -3.4503333478
C     0.739697417     1.598930246     -3.3977759084
C     -2.6185963396     0.6847182552     -2.072256942
C     -1.5440675738     1.5762829482     -2.4533951748
C     -0.5108846426     -0.3375136725     -3.6972068225
C     -0.5865337844     1.0999717673     -3.4261261343
C     -1.2541160448     -2.3807167861     -2.6258436644
C     -2.2819002212     -2.6025407787     -1.594828064
C     -3.1562296076     -1.5241856555     -1.6096172422
C     -1.5589877996     -1.162366655     -3.3218371473
C     -2.6999686357     -0.5929853833     -2.6467940349


