56

 C     1.4636066627     0.0028687257     4.2247536012
C     0.6708895084     -1.144982351     3.8520651536
C     1.4356063819     -2.0320334745     3.0839400548
C     2.614586148     -0.007830473     3.3303728098
C     2.6357061414     -1.2633761594     2.6856757401
C     2.5078923692     1.1077796648     2.4435036636
C     0.6844332608     1.1129217128     3.8566938396
C     1.361991841     1.9167419173     2.888493165
C     -0.6398955467     -0.7545273322     3.3381753135
C     -0.6758006352     0.6841378462     3.5010518911
C     -1.1999437642     -1.3644078065     2.1695386959
C     0.9050138434     -2.6532722167     1.9434815242
C     -0.4448488793     -2.4213986853     1.4823190494
C     2.8457518313     -1.4582975357     1.2969632499
C     1.9577028662     -2.5504538527     0.9395005015
C     2.7582811192     0.9774328043     1.0096835882
C     2.929691102     -0.3513703241     0.3902327256
C     2.2250912871     1.9832287122     0.19455823
C     0.6298431835     2.7217260307     1.9823041991
C     1.250690123     2.9715488684     0.713568558
C     -1.3976620041     1.4525428292     2.6270218752
C     -0.8114271217     2.6280398256     1.9808116994
C     -2.1538596867     -0.5751320059     1.369201523
C     -2.2771975751     0.8121612196     1.6823913575
C     -2.5730874942     -1.0204536076     0.0350442077
C     -0.7600238006     -2.7681307821     0.0962347721
C     -1.9338444724     -2.1917120748     -0.5930713931
C     1.6678686674     -2.7952182268     -0.3519024127
C     0.3315853053     -3.2214711724     -0.7219338911
C     2.5516746198     -0.5728048158     -1.0138714023
C     2.1730955937     -1.9012971229     -1.3846717069
C     1.9660720844     1.7892116442     -1.2308434538
C     2.0003009488     0.5018083868     -1.8430338997
C     0.4889663713     3.3926857746     -0.3686736069
C     0.9559262276     2.6982624492     -1.5827581033
C     -1.563305171     2.8700824986     0.792669259
C     -2.5454663364     1.7962357494     0.6632987256
C     -0.926169825     3.3392556266     -0.3830252511
C     -3.1886674111     -0.0335725101     -0.8173052436
C     -3.0011387037     1.3815701693     -0.5584368395
C     -3.1377141152     -0.1862712958     -2.2366251777
C     -2.0129748985     -2.3357400494     -2.0358222372
C     -2.593721131     -1.2873380945     -2.8302674381
C     0.2926569889     -3.0773828484     -2.1252955237
C     1.3999894172     -2.1503454592     -2.5262697512
C     -0.8481601769     -2.7417378563     -2.7887411386
C     1.0473796288     0.2394595561     -2.9459693254
C     -1.5508590557     -0.7824693145     -3.7825942645
C     0.841402458     -1.139833965     -3.3222948795
C     -0.4910420192     -1.6257129309     -3.706730052
C     -0.1252854527     2.3772883819     -2.415185547
C     -1.3288372753     2.8146765614     -1.6844358235
C     -2.4564525254     2.0052535897     -1.7766288843
C     -2.495863307     1.0275042731     -2.7928495094
C     -0.0804595608     1.1678370861     -3.1831741051
C     -1.3799880451     0.6363124498     -3.5711381023


