56

 C     1.3677278692     -0.0526096045     3.5039362187
C     2.5025524122     -0.3374434991     2.7803273701
C     2.4212884017     -1.7294298686     2.3135625316
C     0.5217827024     -1.2472744813     3.4907020894
C     1.1618157126     -2.2771693265     2.6994074574
C     -0.7676398625     -0.8134785523     3.1714017353
C     0.5732266977     1.1039636842     3.1648905891
C     -0.7810908189     0.6562628991     3.0169823988
C     1.103809785     2.1111456481     2.3031172553
C     2.9106688601     0.502971496     1.6890063152
C     2.3246336945     1.8009938462     1.5271478362
C     2.8504075667     -1.7345533146     0.9695419359
C     3.165434789     -0.3465320431     0.5583238269
C     2.2403784103     -2.5986770152     0.072201096
C     0.4014651208     -3.0240434717     1.7328652261
C     1.0651794195     -3.345123343     0.4903901102
C     -1.5641048052     -1.594039096     2.3089666528
C     -1.0144121484     -2.7580155697     1.6485411695
C     -2.5622030861     -0.9738139981     1.4736413058
C     -1.6818794067     1.2854710339     2.1170577167
C     -2.6478823418     0.4550565262     1.3525299518
C     0.1153831095     2.9500053612     1.6917057275
C     -1.2535634662     2.5281355505     1.5776225358
C     0.4401955167     3.695363286     0.5073173298
C     2.4512487058     2.3472146456     0.2140602337
C     1.5742382509     3.4096380361     -0.2171649415
C     2.8931492295     0.0966883244     -0.7638249731
C     2.6617334534     1.4897069612     -0.915924713
C     2.0730626089     -2.2032522497     -1.3308183461
C     2.2999733908     -0.8520498159     -1.7412153415
C     0.2973623381     -3.5355504851     -0.6899248943
C     0.9494472318     -2.9118829483     -1.820502561
C     -1.7482098446     -2.8955325778     0.4085287041
C     -2.7529678147     -1.8443028943     0.3366746583
C     -1.1032048091     -3.3047621858     -0.7678812686
C     -3.1151367157     -1.302062093     -0.8964226352
C     -3.1590953831     0.9639974226     0.1174992609
C     -3.4321844839     0.0788724896     -0.9532175101
C     -1.7494518272     2.9908344659     0.2604479084
C     -0.7128931725     3.6788501861     -0.4049393751
C     -2.6033222723     2.1845267676     -0.4776832496
C     1.1673326642     3.1746962516     -1.6036183663
C     1.8082597724     2.0009130363     -2.008819125
C     -0.2722013614     3.2922936087     -1.7055277344
C     1.4202708764     -0.3292255588     -2.7494113012
C     1.1114817071     1.0775593167     -2.8146382679
C     -0.0409478466     -2.2992925789     -2.6295618904
C     -1.3564042355     -2.589681293     -2.0325778714
C     -2.3516828098     -1.6415537764     -2.1101046639
C     0.2284209488     -1.0364145461     -3.1571040433
C     -2.8368049708     0.6378346011     -2.1471458603
C     -2.3068062208     1.9283231893     -1.8775379867
C     -1.0286162964     2.3084123491     -2.4335192502
C     -0.2924306195     1.2668000587     -3.1085483948
C     -2.1259503676     -0.3799720894     -2.8397373814
C     -0.8408442387     -0.0587927657     -3.3010252211


