56

 C     1.5128282115     -0.0960921015     3.9290051826
C     0.7167838952     -1.2815528385     3.8342730573
C     1.3693446621     -2.1793692655     2.9071179168
C     2.58160932     -0.1748929362     3.0538718926
C     2.4994397798     -1.4623473835     2.3303747536
C     2.6245498841     1.0682129936     2.2986948135
C     0.6834332138     1.0463355549     3.5104456648
C     1.3644240422     1.8150830282     2.5461009034
C     -0.6251254544     -0.8815612636     3.5479706632
C     -0.626848055     0.5735633261     3.2552876844
C     -1.4301635571     -1.7390846213     2.7883181911
C     0.5830998017     -2.9818373466     2.0751271298
C     -0.839926114     -2.8951406831     2.2060642249
C     0.852330529     -3.0782887796     0.6434253046
C     2.7253972857     -1.4878712845     0.9375424129
C     1.8664826109     -2.3023025091     0.03356215
C     3.1307926403     1.0237446578     1.0412060292
C     3.3238862251     -0.2839472562     0.3675380117
C     2.6735216705     1.9830219263     0.0476708518
C     0.6605606959     2.4068713055     1.4641193355
C     1.4312872577     2.7027132899     0.2472670294
C     -1.3638454779     1.095398047     2.1591785374
C     -0.7758727937     2.1540175839     1.3363497406
C     -2.353663757     -1.1938299222     1.8118902244
C     -2.3755306867     0.207469112     1.5519015079
C     -1.4678864791     -3.1350342932     0.9312577159
C     -0.4359858346     -3.2915900196     -0.0354079632
C     -2.4605526605     -2.1488685138     0.707757291
C     -0.6485401819     -2.7983190177     -1.3170323906
C     1.6563070403     -1.8809415854     -1.3782220658
C     0.4068341041     -2.1506521822     -2.0222529223
C     3.2046949676     -0.0174710314     -0.9765448385
C     2.9722055795     1.4153007515     -1.2055981624
C     2.356383084     -0.7489131424     -1.8785822967
C     2.111447892     1.5543092999     -2.296379554
C     1.7370637362     0.20643724     -2.7682661455
C     0.736454153     3.0707020368     -0.9158453777
C     1.1451511649     2.5737579231     -2.2304293731
C     -1.4665578183     2.5766037534     0.1164762151
C     -0.7171950207     3.1889026051     -0.9414962603
C     -2.9740344765     0.6157870982     0.3391482895
C     -2.6785392961     1.8625702572     -0.2650182941
C     -2.7486625166     -1.7025641687     -0.6131894292
C     -1.9053899877     -2.1412466219     -1.6748892366
C     -3.3032439486     -0.375614928     -0.7222063452
C     -0.2015403999     -1.2242524486     -2.9666618924
C     0.4465418893     -0.007252897     -3.3314749634
C     -1.647052979     -1.2902586848     -2.8067456303
C     -0.0155793244     2.4499939398     -3.0110900899
C     -1.1251433355     3.0203942035     -2.3170377661
C     -0.3955585859     1.1614521084     -3.6068413693
C     -3.0489459992     1.7271171233     -1.6622117402
C     -3.2946368038     0.2938160945     -1.9278293778
C     -2.4181402643     -0.1261416427     -3.0062540228
C     -2.2424487978     2.223887499     -2.6466099337
C     -1.7862446804     1.0597765801     -3.4948252843


