56

 C     1.6147045177     -0.1312783142     4.2894087744
C     0.7904297866     -1.2266697964     4.2625942428
C     1.2974319396     -2.2471898584     3.3485072382
C     2.6948285352     -0.3767898898     3.3040016777
C     2.5121397263     -1.7270309563     2.7463802039
C     2.6815677888     0.6972955153     2.4245912105
C     0.8362818388     1.0137124784     3.8730726715
C     1.5195316331     1.5789305866     2.7973225809
C     -0.5717963066     -0.8591383475     3.8817509148
C     -0.551865976     0.5385159389     3.5743234697
C     0.2248014292     -2.628795187     2.526304901
C     -0.9356876278     -1.7357285046     2.8413639446
C     0.4465386746     -2.9834079953     1.1543851878
C     2.6728177023     -1.9031320392     1.3715189305
C     1.7290662824     -2.6861153007     0.599553065
C     2.9740163786     0.5330921405     1.0095596521
C     3.068092859     -0.7938296892     0.5067850052
C     2.517273364     1.5516336528     0.130340204
C     0.8195917991     2.2955188367     1.7867002466
C     1.4834902684     2.5066116542     0.5665486611
C     -1.2498988965     1.0367631977     2.4512486307
C     -0.6548693316     2.1770082049     1.7488288395
C     -1.7905615163     -1.2906244922     1.7957468944
C     -2.0680805389     0.1283917421     1.6443143706
C     -0.6753004208     -2.9173403148     0.2847506025
C     -1.7948495598     -2.0858814014     0.6168339368
C     -0.5320848476     -2.8152348756     -1.1477552228
C     1.8088361259     -2.2662203449     -0.7798365439
C     2.623248598     -1.0725912755     -0.8300363934
C     0.743384415     -2.4426970631     -1.7005513225
C     2.274276     1.3205106193     -1.2471136422
C     2.3112696885     -0.0299667859     -1.7615388167
C     0.7939415017     2.9782309481     -0.590836601
C     1.2850596594     2.2709449886     -1.74865771
C     -1.3108118986     2.6634147396     0.6352763351
C     -0.5828763692     3.2426323552     -0.4967602755
C     -2.683046993     0.597557138     0.4131111932
C     -2.4578953865     1.9602537087     0.0643429211
C     -2.4386638182     -1.6463772748     -0.6014848397
C     -1.7475849943     -2.2774294849     -1.7067186674
C     -2.975129787     -0.340368884     -0.6997530801
C     -1.722221064     -1.643489094     -2.9556076415
C     0.7249512893     -1.5973054911     -2.8711414778
C     1.4617474761     -0.3208388496     -2.8510666845
C     -0.4539224367     -1.3901320675     -3.5895947965
C     0.4564168866     1.9886533749     -2.8742775881
C     0.6504263334     0.6864830938     -3.4981571308
C     -0.4735185949     0.0013837827     -4.0531817318
C     -1.3721862907     3.1204004745     -1.6504507587
C     -2.6170958794     2.428789854     -1.2782143777
C     -0.8962883795     2.5537981779     -2.8703221504
C     -3.1462445281     0.1754467052     -2.062066298
C     -2.5551424208     -0.5000698943     -3.1495800465
C     -1.7736117553     0.512019649     -3.9220462369
C     -2.9796604965     1.5997492847     -2.3147670201
C     -2.0052664029     1.77793062     -3.3979494717


