56

 C     1.440875005     -0.1610018011     4.6751685447
C     0.6466079037     -1.2836601647     4.4906522874
C     1.2335773183     -2.1686241591     3.4909106704
C     2.5272990053     -0.2636988793     3.7135143975
C     2.3724127713     -1.5079466186     2.9293697102
C     2.564274832     0.932732385     2.9972101997
C     0.6258559233     1.0060468449     4.2870924446
C     1.3772734036     1.7625127071     3.3949873344
C     -0.6553120862     -0.906887153     3.988258083
C     -0.6831985694     0.5383655504     3.8348436922
C     0.1771282643     -2.616662081     2.6410899743
C     -1.0100408273     -1.7735701576     2.9055193376
C     0.4709116926     -2.8741378994     1.3252468078
C     2.5301823287     -1.4914682889     1.497222684
C     1.7176025127     -2.4090678021     0.7639208676
C     2.6461694919     0.9791187429     1.5847830339
C     2.7852728088     -0.2119914095     0.7862872489
C     0.8150669521     2.262060476     2.2024244576
C     1.7359496153     2.0105067173     1.1039753641
C     -1.2600504967     1.0509613493     2.6521456403
C     -0.5589143323     2.0886883361     1.8837461053
C     -1.7719263292     -1.2931629547     1.8223706589
C     -2.0721354908     0.1338226055     1.8317331652
C     -0.5331925077     -2.7289314872     0.2845026342
C     -1.6794469971     -1.9436848078     0.4933524638
C     1.5064701555     -2.2681662583     -0.6376862068
C     0.1436615199     -2.6192271309     -0.9760873494
C     2.5257566794     -0.0733815699     -0.6110237528
C     2.1331474089     -1.24827005     -1.3950622468
C     1.3459100394     2.0863696243     -0.2196515544
C     2.0332648825     1.2085520554     -1.1534406151
C     -0.9563524464     2.3896411848     0.5298303303
C     -0.0009766834     2.5493889669     -0.5478196516
C     -2.6499887654     0.6508283834     0.691475602
C     -2.2704914401     1.9620327025     0.1531212442
C     -2.3400035885     -1.3717384595     -0.6891740292
C     -3.0553955085     -0.1598874527     -0.4504163395
C     -0.4806079773     -2.1699095106     -2.1595236605
C     -1.8417524867     -1.6248657076     -2.052125876
C     1.6816933735     -1.1109184943     -2.7138233201
C     0.4262731712     -1.6810127681     -3.1599323251
C     1.6737286892     1.3170153275     -2.4937539848
C     1.7855279365     0.1770371422     -3.3786328682
C     -0.4306098878     2.5728354009     -1.9437088217
C     0.5069602957     2.102861573     -2.9388676424
C     -2.7029248016     2.0409002805     -1.155752088
C     -3.326307147     0.7448349921     -1.5057772812
C     -1.8510730871     2.4263935927     -2.2387904789
C     -2.2686824189     -0.7555227769     -3.1283896958
C     -2.9788838348     0.4509728723     -2.8041259345
C     -2.243999436     1.6130121406     -3.3678206696
C     -0.0475532319     -0.8494689421     -4.2440944352
C     0.8507810546     0.2894097387     -4.4012879347
C     0.0570840917     1.4888428432     -4.157330744
C     -1.3565693267     -0.3874663681     -4.1806088922
C     -1.3103294118     1.1185865976     -4.2500465655


