56

 C     1.6477701031     -0.1394457967     4.2269364735
C     0.7934737694     -1.2920655907     4.4123727475
C     1.1431362954     -2.2365765535     3.4189009222
C     2.4399675713     -0.410175931     3.0425761419
C     2.176730855     -1.7153988022     2.5414475003
C     2.4150541654     0.6847472845     2.083042646
C     0.819405341     0.8893174787     3.7116733236
C     1.4161614782     1.589650141     2.5742698747
C     -0.5365131311     -0.9254813801     3.9453009757
C     -0.5546556462     0.4434702179     3.5635373834
C     -0.0353428386     -2.8159616221     2.7806573476
C     -1.1157190763     -1.8852315243     3.0254523249
C     0.1287720585     -3.3517368463     1.5253651568
C     2.1623065071     -1.9755254518     1.11932714
C     1.2908749737     -2.9966229725     0.6738954671
C     2.5224662744     0.472529259     0.6934581106
C     2.4936353307     -0.8900406071     0.1647224838
C     2.1034020446     1.5998851481     -0.1423903425
C     0.6032069967     2.3008980044     1.7086221597
C     1.1536216011     2.5841969787     0.3854161676
C     -1.3198425333     0.9107618203     2.4605122214
C     -0.8521011382     2.132383214     1.8233054964
C     -1.9274789906     -1.4411138319     1.9294925613
C     -2.1071310512     -0.018571612     1.6630986342
C     -0.9952681669     -3.3183035343     0.6595454334
C     -1.9840009654     -2.3155214857     0.787382005
C     0.8547186776     -3.0396931638     -0.7012329594
C     -0.5413152954     -3.3390576236     -0.7064579826
C     2.2356588131     -1.0563562215     -1.2424417396
C     1.3758750857     -2.1601723461     -1.6966585481
C     2.1899884432     1.4344521384     -1.5322454277
C     2.3179101711     0.1139857308     -2.0871005582
C     1.4094870731     2.2801606551     -2.4610336016
C     0.363421066     3.3624483203     -0.4879551563
C     0.4789501599     3.2070614228     -1.9513082601
C     -1.6163891792     2.655804688     0.797123447
C     -1.0228878984     3.5395231712     -0.1700296425
C     -2.5830221351     0.4243350277     0.3494430601
C     -2.5506037246     1.7984750885     0.0676959667
C     -2.2797265995     -1.8301399566     -0.5638695435
C     -1.42811366     -2.5913348493     -1.5005492874
C     -2.5855573544     -0.4995023527     -0.8253938974
C     0.5129520461     -1.9241027623     -2.8206182605
C     -0.9192914035     -1.994207337     -2.6301633501
C     1.6571544253     0.1554176868     -3.3591449634
C     1.0547487319     1.4800518773     -3.5628994112
C     0.7219951798     -0.8117660487     -3.6867198694
C     -2.3235750604     0.035068744     -2.2028363439
C     -1.4956605783     -0.7431505349     -3.1099975558
C     -0.3370213394     1.292924642     -3.8984680728
C     -0.5497423932     -0.124995446     -3.9512952709
C     -0.8450794261     3.2043479618     -2.4875634929
C     -1.7548321275     3.4277914573     -1.3869888419
C     -2.5920740204     2.3001546225     -1.2895485554
C     -1.3040574228     2.090010329     -3.2660603352
C     -2.3258320824     1.4323890744     -2.4136219021


