56

 C     1.5976445634     0.     4.0246865537
C     0.8313214074     -1.1958462241     3.663621357
C     1.6217701484     -1.9745605911     2.7274654788
C     2.773009969     0.     3.3258059737
C     2.821770471     -1.195846238     2.4800863792
C     2.821770471     1.195846238     2.4800863792
C     0.8313214074     1.1958462241     3.663621357
C     1.6217701484     1.9745605911     2.7274654788
C     -0.4207639198     -0.7457332808     3.2214207639
C     -0.4207639198     0.7457332808     3.2214207639
C     -1.1443723821     -1.4523745398     2.2194895886
C     0.982965368     -2.6115251546     1.6531344531
C     -0.4854328735     -2.5914394748     1.6061821646
C     1.6430028892     -2.5914395817     0.3405992974
C     3.0312407263     -0.7457333223     1.1688344955
C     3.0312407263     0.7457333223     1.1688344955
C     2.4965465222     -1.452374636     0.0545735825
C     2.4965465222     1.452374636     0.0545735825
C     0.982965368     2.6115251546     1.6531344531
C     1.6430028892     2.5914395817     0.3405992974
C     -1.1443723821     1.4523745398     2.2194895886
C     -0.4854328735     2.5914394748     1.6061821646
C     -2.1815400849     -0.7302044682     1.4891364751
C     -2.1815400849     0.7302044682     1.4891364751
C     -2.7823257081     -1.4009971461     0.3746458643
C     -1.1229985982     -3.2175916937     0.4981099973
C     -2.3314276406     -2.6632565456     -0.0250978748
C     0.9739617637     -3.2175917609     -0.748757429
C     -0.3619224335     -3.6851339323     -0.60867485
C     1.0914105572     -2.6632566644     -2.0603416753
C     2.350208437     -0.7302044927     -1.2054731838
C     2.350208437     0.7302044927     -1.2054731838
C     1.657962469     -1.4009971759     -2.2655808985
C     1.657962469     1.4009971759     -2.2655808985
C     0.9739617637     3.2175917609     -0.748757429
C     1.0914105572     2.6632566644     -2.0603416753
C     -1.1229985982     3.2175916937     0.4981099973
C     -0.3619224335     3.6851339323     -0.60867485
C     -2.7823257081     1.4009971461     0.3746458643
C     -2.3314276406     2.6632565456     -0.0250978748
C     -3.1253145088     -0.6777895887     -0.8571911983
C     -3.1253145088     0.6777895887     -0.8571911983
C     -2.2858646817     -2.7170416827     -1.496193754
C     -1.0998430481     -3.3747010198     -1.849697162
C     -0.222831194     -2.7170417984     -2.7228881134
C     -2.6111100597     -1.4314142959     -2.001919011
C     0.739497274     -0.6777896339     -3.1552356786
C     0.739497274     0.6777896339     -3.1552356786
C     -0.5118201246     -1.4314143554     -3.2501717572
C     -1.7394180288     -0.7391143737     -2.925323585
C     -0.222831194     2.7170417984     -2.7228881134
C     -1.0998430481     3.3747010198     -1.849697162
C     -2.2858646817     2.7170416827     -1.496193754
C     -2.6111100597     1.4314142959     -2.001919011
C     -0.5118201246     1.4314143554     -3.2501717572
C     -1.7394180288     0.7391143737     -2.925323585


