56

 C     1.5592543281     0.1019120756     3.8886377174
C     0.7762950235     -1.0766625255     3.6966460488
C     1.389292606     -1.8866779155     2.6905434279
C     2.6156443829     0.1057086363     2.9280310414
C     2.5917496328     -1.1682330295     2.2513701255
C     2.5339980695     1.3009875556     2.1478116129
C     0.7297653699     1.2403133512     3.6544353819
C     1.3785879689     2.05204071     2.6536088676
C     -0.5938712407     -0.6629256368     3.5155091494
C     -0.6109666824     0.8019184467     3.4217276599
C     -1.3821558609     -1.3915941553     2.6449760749
C     0.5918964199     -2.6065346787     1.7322199529
C     -0.8225196095     -2.4737636724     1.850080279
C     1.1419317232     -2.8628183735     0.3879294821
C     2.9285202848     -1.1975710679     0.9112905725
C     2.3199885655     -2.1535009101     0.0015273335
C     2.8192569578     1.2850683522     0.7369242372
C     3.1913217202     0.0290629349     0.1748651719
C     2.1367745864     2.250322358     -0.1449379173
C     0.5810747692     2.7285852474     1.7499255316
C     1.0237213068     2.9704276117     0.3870270799
C     -1.4421434427     1.4498840355     2.4412031187
C     -0.8617223401     2.5431931567     1.7342683986
C     -2.437071599     -0.7575468028     1.8723064786
C     -2.48036945     0.664746503     1.7477894242
C     -1.6916463297     -2.6459075335     0.7106313521
C     -2.7330680426     -1.6190045858     0.7561255957
C     0.2379809615     -3.2147167435     -0.6758328812
C     -1.2033109892     -3.0784916334     -0.5078697769
C     0.5384108628     -2.8747733114     -2.0205538474
C     2.4856100755     -1.6434699745     -1.3357365236
C     2.9676376192     -0.2666990844     -1.2199990133
C     1.5984907264     -2.0009051074     -2.3519651217
C     2.1057974294     1.9938859436     -1.5612449668
C     2.5100052838     0.6996382466     -2.0958170511
C     1.0246943428     2.4574114554     -2.3552580131
C     -0.14830566     3.2366192586     -0.4075468543
C     -1.3145467583     2.9101928013     0.4138021651
C     -0.1541628435     2.9831017785     -1.779868666
C     -3.0324492495     1.1759313558     0.5203748073
C     -2.4161931632     2.3064352479     -0.1626932849
C     -3.2705741971     -1.1015758582     -0.4231813662
C     -3.5102544057     0.2899741713     -0.4801740008
C     -1.7499190691     -2.51709181     -1.7577172254
C     -0.6629478296     -2.383434923     -2.6650790588
C     -2.7007683622     -1.5031768604     -1.7181344786
C     1.0512622031     -0.9613334264     -3.236647494
C     1.5528305966     0.3331483303     -3.156724483
C     0.6404703183     1.4163085535     -3.2872834453
C     -0.3878887262     -1.1838893565     -3.3769422435
C     -1.2921181821     2.272048236     -2.3816979272
C     -2.4183711256     2.0129416632     -1.6083660854
C     -3.0777162293     0.7644496451     -1.7793929048
C     -2.5315667139     -0.3050308693     -2.5405827347
C     -0.771186472     1.2476586378     -3.2870737549
C     -1.3244495608     -0.086586454     -3.3032669984


