56

 C     1.6349783776     -0.0624980478     3.8669034129
C     0.7735945547     -1.2071243563     3.7523892168
C     1.2422090064     -2.042322413     2.6972616309
C     2.5753722243     -0.0965177931     2.8162078325
C     2.3549375705     -1.3128192457     2.078236236
C     2.4402688677     1.1281735815     2.051283998
C     0.8065746315     1.0889801598     3.6626473652
C     1.332757193     1.8942561377     2.6081425599
C     -0.6082147927     -0.7850905975     3.7586480531
C     -0.5839998355     0.7076531951     3.6651829206
C     -1.5320741681     -1.5007910425     3.0255140695
C     0.3091765868     -2.7752687764     1.8943894949
C     -1.0973615299     -2.6140100323     2.1795993554
C     0.6808399078     -3.013776203     0.5352260874
C     2.5689188509     -1.3636444945     0.673770398
C     1.8349177253     -2.3549247482     -0.0350094374
C     2.7131023774     1.1591307701     0.6647650106
C     2.9437652528     -0.1135586562     -0.0399091093
C     2.1117880444     2.2290191681     -0.0713792367
C     0.4430565725     2.5888889631     1.7290000012
C     0.9338959634     2.885822877     0.4290166932
C     -1.4460083097     1.3520918062     2.7919685855
C     -0.9675740605     2.3604158968     1.8691045894
C     -2.5994527202     -0.790534494     2.2801475612
C     -2.5138392118     0.6034849625     2.1126499871
C     -2.0226878885     -2.6955730004     1.1070005283
C     -2.9458388486     -1.5842170698     1.1659462287
C     -0.2963691436     -3.1024904182     -0.5281067051
C     -1.6459123789     -2.8780741458     -0.2468668693
C     1.6292481209     -2.2339508672     -1.4574592174
C     0.2691966131     -2.5986592291     -1.7621956436
C     2.8769855701     -0.098207816     -1.4397800291
C     2.2649488761     -1.2177365284     -2.1636156327
C     2.0521089365     2.2243022076     -1.5112270338
C     2.5479336614     1.1095042928     -2.1940484203
C     0.0595076495     3.0995724767     -0.7010945874
C     0.8042502093     2.86013664     -1.9267988281
C     -1.7832683331     2.2918050708     0.6918324679
C     -2.7295854526     1.188864162     0.8311378305
C     -1.3129749249     2.7185242116     -0.5871712373
C     -3.1074280914     -1.0457216694     -0.1402214727
C     -2.3728559212     -1.899538426     -1.0655235031
C     -3.062288005     0.3743255583     -0.31219533
C     -0.4929356972     -1.8437587934     -2.7040055863
C     -1.8449208257     -1.3962376932     -2.2702395674
C     1.6268653888     -0.736291478     -3.3302815908
C     1.8735171097     0.7158760341     -3.4107444345
C     0.2652689398     -0.9993472842     -3.5980441608
C     0.1364038425     2.4087565067     -3.0733805256
C     0.7381277281     1.3492578952     -3.8625261721
C     -0.2869333748     0.2813755674     -4.0452845201
C     -1.9316647897     2.1206467079     -1.7531970699
C     -2.6754829309     0.8413905923     -1.5888083788
C     -2.2494873684     -0.0483368674     -2.6128280089
C     -1.2690307145     2.0936200339     -2.9709677142
C     -1.4663270153     0.7351467621     -3.5350621118


