56

 C     1.5319186665     0.0688357608     4.0123444248
C     0.7227417888     -1.0926586696     3.8008062259
C     1.3456185162     -1.9038444386     2.8349386739
C     2.6341064859     0.0364545629     3.0651806507
C     2.5452737571     -1.1535237836     2.3349532793
C     2.6742793008     1.3023602363     2.3337780717
C     0.7588380599     1.178745489     3.6393046095
C     1.4913751032     2.0416812156     2.739767621
C     -0.635811336     -0.6509199236     3.4793689061
C     -0.6080005323     0.776348853     3.3027153343
C     -1.4135267563     -1.410849186     2.6188204032
C     0.5766271114     -2.7212445844     1.9456465422
C     -0.8629453913     -2.5866241044     1.9654392174
C     1.1682676114     -3.0494693018     0.6856693931
C     2.8409606486     -1.1677629796     0.9158977823
C     2.2324510007     -2.1610436815     0.1289629018
C     3.0332633319     1.3184673208     0.981736605
C     3.1516253761     0.0722111806     0.2515527429
C     2.4414074011     2.2886326839     0.0847304451
C     0.7632745678     2.7616177392     1.8024743559
C     1.3349755962     3.039743838     0.5010505264
C     -1.3089037029     1.407336939     2.2285256598
C     -0.6515655759     2.5085399621     1.5859243528
C     -2.3329924924     -0.7719984518     1.7088158446
C     -2.2628600691     0.6248023797     1.4263545086
C     -1.647129499     -2.8268357921     0.7867887798
C     -2.6120110987     -1.7357390958     0.6704670336
C     0.3757330961     -3.4596966186     -0.3837542091
C     -1.0415857671     -3.3130837803     -0.3845466926
C     1.9624214125     -1.9648658428     -1.2753753956
C     0.8544225902     -2.783667042     -1.5872809244
C     2.7589597028     0.3020956561     -1.1215727549
C     2.4104975281     1.6943502287     -1.243959263
C     2.0771702945     -0.6816618572     -1.8993266998
C     1.4835518857     2.0919186833     -2.1862976504
C     0.255551731     3.2927670106     -0.4186250066
C     -0.9716836856     2.8797420798     0.2318498842
C     0.4181615092     3.0239946466     -1.7806414707
C     -2.6834377489     1.0874689477     0.0972205273
C     -2.0405448967     2.2712846216     -0.5049762478
C     -3.0716409014     -1.3049422191     -0.5494644623
C     -3.2381375739     0.1130370164     -0.799170292
C     -1.4306060599     -2.7663996766     -1.6845128333
C     -0.2134240402     -2.3739906361     -2.4024784252
C     -2.5320518797     -1.9192740061     -1.7772804053
C     1.0672597798     -0.2774279079     -2.8964908175
C     0.8959631856     1.1325068408     -3.1020904172
C     -0.1118824741     -1.1433341018     -3.1483490088
C     -0.7186457717     2.7477904438     -2.5485993948
C     -1.9677606138     2.4068020706     -1.9500120852
C     -0.3819196575     1.6700290736     -3.4921548086
C     -3.1354622939     0.2933089561     -2.2231261518
C     -2.531003934     -0.9287184709     -2.7753475964
C     -1.3740834338     -0.5468101887     -3.5263963707
C     -2.541957895     1.3868611446     -2.7977633033
C     -1.4851219679     0.8766507598     -3.7014926057


