56

 C     1.3961655094     -0.3438918517     4.624468767
C     0.5434792898     -1.4026978008     4.3204476167
C     1.0954018574     -2.1591841369     3.2086497113
C     2.5188463372     -0.4330683073     3.6809933098
C     2.3108061706     -1.5553482997     2.7652685646
C     2.7356802125     0.8188755649     3.1065204556
C     0.6896126584     0.8793707949     4.2657328717
C     1.5397596099     1.6691430539     3.4816218065
C     -0.6929744684     -0.8873253693     3.7793642913
C     -0.6156625091     0.5415065456     3.6831222804
C     0.0583738598     -2.4963974869     2.2684181947
C     -1.0879438976     -1.6528881178     2.6343514603
C     0.36862771     -2.691707316     0.9301241558
C     2.5104722771     -1.4192099155     1.3472176413
C     1.698280276     -2.2692182952     0.4700321623
C     2.931412325     0.9672826026     1.7244826132
C     2.961674084     -0.1456718232     0.7956018392
C     1.0906696157     2.2982232872     2.319742048
C     2.1335654204     2.1161695521     1.3108112407
C     -1.0890072206     1.1700566975     2.485417274
C     -0.2845640394     2.1994919251     1.8514956287
C     -1.8224704582     -1.0624473398     1.6159214837
C     -1.9537474079     0.393490449     1.5777788129
C     -0.7636913633     -2.6481414152     -0.0106370023
C     -1.8867836139     -1.8108813395     0.3644938923
C     -0.5088054601     -2.8298569056     -1.3868108654
C     1.8276035653     -2.1102218062     -0.9123182292
C     0.8474224907     -2.6398322284     -1.8245370437
C     2.7524518087     0.1471651098     -0.6229924286
C     2.3691642304     -0.8984320173     -1.4936654575
C     1.8602147985     2.3519758952     0.0075850811
C     2.33365042     1.46731405     -1.0395478113
C     -0.5506764606     2.5803601879     0.4833738829
C     0.5636539145     2.8502142825     -0.3782780166
C     -2.4419632346     0.9789405718     0.3788499549
C     -1.7969466721     2.1774266064     -0.1644751227
C     -2.7259702434     -1.3003618742     -0.6255400794
C     -3.1281758088     0.0998057186     -0.5640175588
C     -1.3976898729     -2.3176164676     -2.411303332
C     -2.5836067788     -1.6634685678     -2.0248184057
C     0.7996409108     -1.8152860068     -2.9660903664
C     1.645856285     -0.669466667     -2.731190181
C     -0.5581299888     -1.670868562     -3.4225612655
C     1.5138520033     1.6860642811     -2.1771459903
C     0.4686077762     2.6420293401     -1.7781286931
C     1.1638423523     0.6259290752     -3.0890636059
C     -1.9564376226     2.4563973061     -1.5515658784
C     -0.776769476     2.6191142178     -2.3761068792
C     -3.4526256435     0.5140289024     -1.8632734723
C     -3.0930574155     -0.5820527978     -2.8012661796
C     -2.8953500905     1.7082674818     -2.3771188644
C     -0.9543806309     -0.4585325191     -4.0011468452
C     -0.0880297691     0.7219486452     -3.815217408
C     -0.9705443446     1.8280807466     -3.5805705808
C     -2.32355887     -0.0099869449     -3.8269853875
C     -2.3292244078     1.4353892579     -3.6655140702


