56

 C     1.478569409     -0.0939454364     3.8479560169
C     0.7067555304     -1.2466208206     3.626583048
C     1.2719982857     -1.9131804187     2.4828403197
C     2.6059292677     -0.0522610701     2.9562270009
C     2.4661150236     -1.1426773247     2.0600015249
C     2.6960603933     1.2675890673     2.4143325895
C     0.6788720462     1.0577798917     3.5693204558
C     1.399311255     1.9216517839     2.682428091
C     -0.670891627     -0.8068863042     3.5250282715
C     -0.6687401668     0.6454715916     3.3038823368
C     -1.5153493164     -1.572119192     2.7980580661
C     0.4338681847     -2.5352614512     1.5260948916
C     -0.9600134956     -2.6458782648     1.9361238872
C     0.7346356442     -2.4877569441     0.0893823411
C     2.7608898603     -1.0007689047     0.6704247512
C     1.9409717025     -1.741082092     -0.3310389436
C     3.264358878     1.3941730276     1.1646130416
C     3.3887997074     0.2304852745     0.2910262196
C     2.8068522802     2.4598914635     0.3358290987
C     0.7010416759     2.5617048573     1.6260804706
C     1.5157058537     2.989029636     0.5041449617
C     -1.3969092768     1.1864820622     2.204162576
C     -0.7215880549     2.2175456801     1.3925477329
C     -2.6111260427     -0.977562797     2.0736586156
C     -2.4945962792     0.3776254895     1.6204016279
C     -1.9280226629     -2.9592235604     1.017666033
C     -3.0636755464     -2.0031601896     1.1881280918
C     -0.338534405     -2.753662479     -0.876748148
C     -1.6612963082     -3.0806019545     -0.3786654935
C     -0.2743630835     -2.1489388668     -2.2194778356
C     2.042884584     -1.3369572303     -1.6761272627
C     0.9378754473     -1.5128884382     -2.6038921336
C     3.3158296441     0.7073270955     -1.0777183247
C     2.9848641057     2.098404595     -1.0599539127
C     2.7438332842     -0.1055533389     -2.0602391739
C     0.954899704     3.1303343287     -0.8410528332
C     1.9075666424     2.6037724673     -1.8267468856
C     -1.234128351     2.4501218696     0.0957477657
C     -0.3872205708     2.9011505126     -1.0131552939
C     -3.0030960615     0.6700058379     0.2711550071
C     -2.3315559406     1.6994204346     -0.4613890669
C     -3.5793930167     -1.7355003002     -0.0392904409
C     -2.8296205873     -2.5630119152     -1.0382522466
C     -3.6177564089     -0.3790414694     -0.5240151789
C     -1.475239949     -1.6305487043     -2.8385026217
C     -2.7236901481     -1.8076733534     -2.1758077522
C     -3.3029171588     -0.4765395603     -1.9151408069
C     -0.8889045734     2.2839872503     -2.2349349054
C     -2.1232426558     1.6151731781     -1.8950765618
C     -1.4733415127     -0.2668077153     -3.3420176135
C     -2.515900299     0.4587146132     -2.5948175655
C     0.9198366     -0.3805864413     -3.4656790076
C     1.9801276759     0.5143552398     -3.0850030704
C     1.4322703706     1.8257726194     -2.9035379249
C     -0.2801543339     0.3618707411     -3.6374435903
C     0.0005448067     1.7268559793     -3.1581202401


