56

 C     1.5120457618     0.0014407662     3.8640165251
C     0.6975574757     -1.1741217104     3.6947387603
C     1.2798024103     -1.9590161989     2.6542058191
C     2.6268174056     -0.0335034202     2.9961477669
C     2.5842666107     -1.3208655714     2.3471411514
C     2.5476799815     1.127808711     2.1609803947
C     0.7182079228     1.1597403654     3.6437249605
C     1.2896633358     1.8313419002     2.5083095547
C     -0.6655669265     -0.7495152824     3.6339164871
C     -0.6518766065     0.7335274985     3.6037086907
C     -1.5015610115     -1.4090998422     2.7464800082
C     0.4700116601     -2.4421409183     1.5677963184
C     -0.9423630636     -2.279782599     1.7171962185
C     1.0073347212     -2.5258484338     0.1905882534
C     3.0733879344     -1.4024281606     1.0854010581
C     2.3946859776     -2.1988741678     0.038586916
C     2.994654219     1.0741575514     0.8295780815
C     3.5666060978     -0.1995820624     0.4254805722
C     2.3144900848     1.8839393225     -0.2089275268
C     0.4620270263     2.3276988877     1.4622272972
C     0.9602172847     2.3980896535     0.0771685238
C     -1.5036192444     1.3736808736     2.726455773
C     -0.9631950801     2.229910944     1.6762409015
C     -2.6238777728     -0.7240172043     2.1429379098
C     -2.6344231843     0.6726231936     2.1467449378
C     -1.8091948936     -2.2570079977     0.5854544895
C     -2.9564984161     -1.4172733911     0.9120752178
C     0.1453251552     -2.3872839935     -0.9790621248
C     -1.3122797793     -2.3360092272     -0.7685978417
C     0.6914245974     -1.8545591392     -2.2432752113
C     2.9015844454     -1.7769217191     -1.1852271379
C     3.6786335398     -0.5285942256     -0.9351604825
C     2.0887508134     -1.5764717128     -2.3257949056
C     2.6791135872     1.6230734932     -1.5637931432
C     3.3690094152     0.3775451942     -1.9156013421
C     2.5572568378     -0.319621015     -2.9190023956
C     1.7226781461     1.8221198105     -2.5872121451
C     1.6483708863     0.580661078     -3.4105698086
C     -0.014107361     2.5355556035     -1.0008557963
C     0.4171495093     2.2263570404     -2.3324615915
C     -1.8980591245     2.2520204545     0.5999985365
C     -3.0083603999     1.3650205013     0.9326802479
C     -1.4700697467     2.4323659694     -0.7519564261
C     -3.6523472453     -0.7755965487     -0.0923544641
C     -3.7020922644     0.7068259149     -0.0708126711
C     -2.1766604039     -1.8400115554     -1.78470372
C     -3.411487114     -1.1860642756     -1.4465678529
C     -0.1988195201     -1.0468312614     -3.1103995496
C     0.2968978544     0.2373441549     -3.5772985644
C     -0.4626755974     1.4279445993     -3.215200679
C     -1.5921260243     -1.1184699774     -2.940514486
C     -2.3660414695     1.9483984792     -1.768060243
C     -3.4929957122     1.1467989341     -1.4142409669
C     -3.4815023961     -0.0206911969     -2.2573482997
C     -1.7958771776     1.3285701317     -2.9903031992
C     -2.4079731922     0.0356417811     -3.1746788068


