56

 C     1.5791834983     -0.0753270725     4.2832008958
C     0.7467922951     -1.2477294427     4.1397292268
C     1.5039639489     -2.2274396358     3.4525616027
C     2.6998100889     -0.2343061903     3.3421857507
C     2.7225555945     -1.5380075685     2.8904124174
C     2.664270445     0.8403788061     2.3530185058
C     0.850561191     1.0167491196     3.8155908345
C     1.5843004507     1.70417633     2.7656754414
C     -0.5230583726     -0.8435823754     3.5553630423
C     -0.5020804665     0.6049271047     3.465145627
C     -1.114160505     -1.5727345096     2.4576019926
C     0.9422713989     -2.9486708181     2.4164645381
C     -0.3788823725     -2.6875245644     1.9277571497
C     2.8022983154     -1.824214354     1.4813861334
C     1.8168463836     -2.815178541     1.2379574787
C     2.8524242965     0.6046510638     0.9504942152
C     2.9229328485     -0.7837449821     0.4934620852
C     2.3160256629     1.6196027426     0.0245304229
C     0.8676386174     2.4529652993     1.8411609666
C     1.3374630919     2.5618859292     0.4748470263
C     -1.2136926258     1.3034436424     2.4721161492
C     -0.5571266135     2.4233671784     1.823578003
C     -2.0159032767     -0.8696780357     1.5428915389
C     -2.1763181134     0.5704864906     1.6665448687
C     -2.316885524     -1.4575052937     0.2388366037
C     -0.3308643104     -2.8365721442     0.4764794306
C     1.0507584315     -2.8615266786     0.0630407741
C     -1.3030628773     -2.3116507543     -0.374779996
C     2.4488396341     -1.0906758959     -0.8527985992
C     1.4476030659     -2.1260147062     -1.0750123582
C     2.2700942246     1.3462910115     -1.3521657115
C     2.4440272316     -0.0400626717     -1.8045977607
C     1.3428920651     1.9822901585     -2.2555143189
C     0.2425613583     2.9453492371     -0.3597734162
C     -0.9395267123     2.8466805991     0.498982527
C     0.176326524     2.6503386313     -1.7527073849
C     -2.8056551298     1.2880041141     0.6025549948
C     -2.1146985615     2.4264017594     -0.0527946683
C     -3.1836710503     -0.7639859691     -0.6479144571
C     -3.4604306294     0.617495058     -0.4120717337
C     -3.0308536428     -0.9152913626     -2.060141133
C     -0.9449749627     -2.1605062272     -1.7941375124
C     0.4658200951     -2.0232505813     -2.1494695434
C     -1.9410635899     -1.5757657456     -2.6561978434
C     1.8085052405     -0.1885136694     -3.0393887837
C     1.2071599603     1.115081424     -3.3947786792
C     0.812356847     -1.1791915961     -3.2563996479
C     -1.5315789209     -0.7565202505     -3.7933979743
C     0.0172483016     0.9297126589     -4.0389432216
C     -0.212860977     -0.5459060869     -4.058870176
C     -1.147719452     2.4138725727     -2.3957192231
C     -2.2863106372     2.3348338462     -1.4989304471
C     -3.292679244     1.3493582242     -1.6904006497
C     -3.200789996     0.4183379674     -2.7208588958
C     -1.2020662301     1.5737274185     -3.5782668822
C     -2.2166163534     0.5606693361     -3.6875392058


