56

 C     1.2920414393     0.1598276554     3.8246296933
C     2.5114187886     -0.0219028964     3.0869540238
C     2.5227640583     -1.3502418623     2.6275318927
C     0.4517228643     -1.0658458231     3.6562111336
C     1.1928902069     -1.9412385764     2.8701651065
C     -0.8558623182     -0.6427674273     3.2233437055
C     0.5082855974     1.2504012075     3.598784475
C     -0.8723773776     0.7858664464     3.3603580797
C     0.8247280429     2.2514136064     2.5971627714
C     2.8184445877     0.8763326384     1.9851635365
C     2.0208299913     2.0725357173     1.7753946272
C     3.0171133217     -1.332357201     1.2828631199
C     3.1743113726     0.0561229943     0.8566156339
C     2.5237598501     -2.2449590085     0.3961291307
C     0.5445241622     -2.7196248552     1.8416120291
C     1.40356457     -3.144548816     0.774907691
C     -1.516266121     -1.2580405138     2.1144348536
C     -0.8738168025     -2.4551827599     1.5395918141
C     -2.3815787308     -0.4219444665     1.2742127102
C     -1.4221882573     1.5836105546     2.383295927
C     -0.398965711     2.5867788158     1.9662363433
C     -2.3232911124     1.0271680975     1.4310112626
C     -0.4594176107     3.1476756809     0.6595853454
C     1.9573127883     2.559286862     0.455857688
C     0.7819824966     3.2648926823     -0.0532904069
C     2.8891155738     0.4375333085     -0.4957152079
C     2.4864448138     1.7916838533     -0.6609534324
C     2.3681395292     -1.9184228594     -1.0244115452
C     2.4131404916     -0.5512483999     -1.4709480723
C     0.8569506199     -3.5973180806     -0.426025907
C     1.454982558     -2.8312457776     -1.5594920188
C     -1.3833353391     -2.9398869648     0.3001474
C     -0.5100304539     -3.5951676582     -0.6272609757
C     -2.8537727286     -0.9329847902     -0.0224318041
C     -2.3225951216     -2.1635517752     -0.481149027
C     -3.328021668     -0.007404944     -1.0337456043
C     -2.6252060131     1.8869268404     0.3307316607
C     -1.653169338     2.9345443166     -0.0903700463
C     -3.2904889946     1.4062773538     -0.7948480723
C     -1.6549918976     2.9394102562     -1.5275158056
C     -2.7045557446     2.0570355236     -1.9642742235
C     0.7707992178     3.1457375821     -1.4655432981
C     1.7800636539     2.1703164407     -1.8232477017
C     -0.4039402851     2.8868915825     -2.2005680671
C     1.4822699961     -0.1676434362     -2.5408900983
C     1.2152817564     1.2314459343     -2.7103086425
C     -0.1103293778     1.7404419461     -3.0924612673
C     0.4401665923     -2.4565431434     -2.4661807561
C     -0.7760100155     -3.0474379124     -1.9598844618
C     -1.9434065246     -2.3035396528     -1.8994516223
C     0.4286759302     -1.1036601703     -2.9791042661
C     -2.9770610226     -0.1861216791     -2.4246128885
C     -2.4684781603     1.0803986929     -2.9157494045
C     -1.1140142813     0.8444815167     -3.4066334556
C     -2.0551875343     -1.188439549     -2.7609779898
C     -0.8533663194     -0.5857670669     -3.3348855861


