56

 C     1.4032811177     0.0537858137     4.2051784042
C     0.5840819542     -1.1470486019     4.0747359641
C     1.3134351169     -2.0986430092     3.354309121
C     2.5654979107     -0.1246281047     3.3434499058
C     2.5569497636     -1.431065318     2.8720554081
C     2.5947858866     0.9488607588     2.3450284318
C     0.6569147044     1.0779405048     3.6247942743
C     1.419077065     1.7419573736     2.5792483137
C     -0.7368615539     -0.774023034     3.6006373238
C     -0.7088148842     0.6548309083     3.3118386435
C     -1.3714827255     -1.5882308941     2.6623959961
C     0.7467492027     -2.761923079     2.2290679053
C     -0.6273217599     -2.6413900467     1.965781926
C     2.7040060811     -1.72215427     1.4793459341
C     1.6493415371     -2.6374796344     1.0912901161
C     3.0115947954     0.7015407375     1.0071141311
C     3.1213377974     -0.6982985304     0.5572649618
C     2.5619729824     1.6517251762     0.041171958
C     0.7398978031     2.3937364235     1.5345037925
C     1.4793686413     2.5378522883     0.3312936907
C     -1.4007198449     1.2183197534     2.2237360491
C     -0.7382690739     2.2940217866     1.4522940214
C     -2.2828036596     -1.0064583696     1.7196653846
C     -2.388124565     0.394179249     1.507294708
C     -1.1121577224     -2.7059961578     0.6155893811
C     -2.3091914948     -1.8806702084     0.5627542505
C     1.1820760696     -2.7026674114     -0.2474664005
C     -0.2607438283     -2.7998811843     -0.5246472342
C     2.8952756517     -0.9780426309     -0.8037323512
C     2.0106670709     -2.0500742564     -1.2078817607
C     2.5074939735     1.370064725     -1.3837175442
C     2.7527841078     0.075956045     -1.8195287237
C     0.8202453376     2.8736595524     -0.9085995462
C     1.4232400465     2.1450797861     -1.9888357092
C     -1.3454106339     2.727107707     0.2844105645
C     -0.5490927291     3.1574005225     -0.8854046445
C     -2.9911846416     0.8608456211     0.2571448853
C     -2.5836773525     2.1394340864     -0.2428758042
C     -2.8284742909     -1.4512689215     -0.617134442
C     -3.4005104838     -0.1248038919     -0.7283899059
C     -0.795744339     -2.3403161538     -1.8179035393
C     -2.1555339311     -1.8217464467     -1.8719937318
C     1.4836685601     -1.7077947485     -2.4782539337
C     1.9666917937     -0.4369702763     -2.8974705531
C     0.0911531555     -1.8275992361     -2.8078669094
C     0.6048396615     1.6324835798     -3.0523635594
C     0.8675510612     0.2760311832     -3.464913716
C     -0.2441013387     -0.6625480845     -3.6127494881
C     -1.3028157591     2.9100076456     -2.0396672458
C     -2.6012729651     2.4066154731     -1.644052305
C     -0.7762321735     2.1006508861     -3.123582315
C     -3.3581133275     0.1737382364     -2.1154720783
C     -2.5222929897     -0.8548264979     -2.8001319472
C     -1.5589554812     -0.1774996328     -3.6353683538
C     -2.9500631158     1.4115236457     -2.583430718
C     -1.8140122138     1.2246991725     -3.5299610062


