56

 C     1.049377013     -0.0228454383     4.072953888
C     2.2577866153     -0.2772675082     3.4482644927
C     2.1907458976     -1.6071843283     2.8334279801
C     0.1928881347     -1.2122805885     3.8989947333
C     0.833928968     -2.095616766     2.9589041692
C     -1.0867193828     -0.7760364008     3.6272801881
C     0.2684326128     1.1501485762     3.7191686709
C     -1.0883341306     0.7127037668     3.570146878
C     0.7570494186     2.0025484222     2.7110405012
C     2.8092715049     0.6248619617     2.4713937513
C     2.0864712511     1.7861399383     2.1360850505
C     2.8550985939     -1.5726533944     1.6061462675
C     3.3397381533     -0.1966412308     1.3825381597
C     2.2966099343     -2.2729538759     0.5161878676
C     0.131486087     -2.5209385141     1.772416574
C     0.9171302748     -2.7327945149     0.5940512853
C     -1.8472798346     -1.2543464449     2.5336432113
C     -1.2766228628     -2.1222899735     1.5485141898
C     -1.9237972551     1.1271507778     2.5378033601
C     -2.5909443506     -0.0859996878     2.0586928464
C     -0.1200750835     2.4870597093     1.646870912
C     -1.4728689312     2.069257061     1.5316404737
C     2.0320111259     2.2277457109     0.7640346043
C     0.6669164516     2.6651996417     0.4574187035
C     3.3809350412     0.2911394321     0.0937479198
C     2.7548319008     1.5735223488     -0.2209155238
C     2.5467202815     -1.8376281413     -0.8206886679
C     3.1281273497     -0.5744745312     -1.0481280607
C     0.3506523372     -2.6834178465     -0.7261882747
C     1.4022751128     -2.2474914029     -1.6299103983
C     -1.8416038483     -2.0975636581     0.1865947716
C     -1.0206261424     -2.3837155021     -0.9882844761
C     -3.1580387884     -0.1020932692     0.8458377218
C     -2.9744585794     -1.2489973203     -0.0427678476
C     -2.0899439814     2.0569954428     0.2112225357
C     -3.147467604     1.0984822593     0.002535407
C     0.1284532331     2.6102855066     -0.8533372359
C     -1.3290984223     2.4469028025     -0.9806396763
C     2.2561036727     1.5303475025     -1.5721859911
C     2.6098056478     0.2395139622     -2.1146429046
C     1.0248090663     2.163691672     -1.9371182697
C     1.0896160054     -1.607998705     -2.8007768764
C     1.7822402487     -0.3379135665     -3.1025004257
C     -1.3726381077     -1.8551698585     -2.3354188688
C     -0.2907013711     -1.5157263777     -3.2407575724
C     -3.3358343496     -0.808764594     -1.3197497469
C     -3.5342059334     0.6606840662     -1.2702687121
C     -2.5992022998     -1.0996685461     -2.5000105246
C     -1.8718430594     2.117537071     -2.2897508166
C     -3.0074758842     1.2160725964     -2.4213902651
C     -2.6216918595     0.1179729804     -3.3006860357
C     0.4341400819     1.7164308644     -3.1630413132
C     0.8557398102     0.4749396629     -3.7350805533
C     -0.3752948834     -0.3199119076     -4.0141443272
C     -0.9814873693     1.7777113056     -3.3351112385
C     -1.4711374813     0.5253388315     -3.9740625111


