56

 C     1.6711629728     -0.0812355464     4.4972499404
C     0.8535838118     -1.2649875749     4.670039391
C     1.3969794518     -2.2566364191     3.8898842723
C     2.7145552093     -0.3497663638     3.4638908385
C     2.546695651     -1.7069183762     3.0888349199
C     2.6001632089     0.6388856553     2.4397255252
C     0.8459937917     0.9053768034     3.9756726005
C     1.4859432629     1.5261464913     2.8449069315
C     -0.5061121655     -0.9951001796     4.120456896
C     -0.5245022064     0.3518985164     3.7348287346
C     0.4094729276     -2.7697208845     2.9655678129
C     -0.8071309586     -1.9601522421     3.0798282268
C     2.3080024836     -2.0416038962     1.744232787
C     1.0069306848     -2.7740963696     1.7049905543
C     2.629325859     0.3068147551     1.0492430879
C     2.5018196299     -1.0903284186     0.6838610996
C     2.1509479396     1.3013005297     0.0824137254
C     0.7291359643     2.1828741351     1.906787259
C     1.3189929118     2.3791215703     0.5866562003
C     -1.230438345     0.7874558774     2.5795880125
C     -0.7407326411     1.9886719305     1.9326854689
C     -1.4943041163     -1.5632381748     1.9009539514
C     -1.8984661528     -0.1762768642     1.7236113148
C     0.2140206031     -2.6787545212     0.5527470464
C     -1.13367683     -2.2166991805     0.6399116316
C     1.9777533505     -1.4246199468     -0.6201058847
C     0.930841584     -2.4294488145     -0.6773289158
C     2.060190439     0.9619191002     -1.3213322194
C     2.016948861     -0.4632701291     -1.7025283613
C     1.4322602751     1.8925542155     -2.218824026
C     0.5981264915     3.1813220776     -0.3130252401
C     0.7616295463     3.0105129162     -1.6944763661
C     -1.4704819334     2.467680761     0.8575272836
C     -0.8500841385     3.3037433502     -0.1133456724
C     -2.4607620189     0.2581763412     0.4428599857
C     -2.4367586748     1.6371189592     0.1490495209
C     -1.8224408794     -1.9026172568     -0.5932153897
C     -2.6087098368     -0.6812288194     -0.6854853496
C     0.2021583032     -2.623634513     -1.8358166378
C     -1.2763652656     -2.4707786952     -1.7869141285
C     1.4364913567     -0.8294216611     -2.9528391494
C     0.6499811407     -2.0225028732     -3.0346899941
C     0.6659156914     1.4489478963     -3.3991685197
C     0.73977609     0.1524523356     -3.8287357602
C     -0.5633789446     3.1165197006     -2.3702019999
C     -1.5398683349     3.2224031414     -1.3481346789
C     -2.5222823081     2.1523424892     -1.2172281161
C     -0.6449763368     2.1661424412     -3.3797939541
C     -2.8912613378     -0.1585895392     -1.9892677632
C     -2.6931085966     1.2714449657     -2.2610868021
C     -1.8444192538     1.3705551425     -3.4745673568
C     -1.6987882586     -2.0218096124     -3.0616374644
C     -0.4900812606     -1.7845339519     -3.8705719576
C     -0.4768536913     -0.4806397589     -4.3682403666
C     -2.4757834552     -0.8612712711     -3.1557055515
C     -1.7540315321     0.0974997364     -4.033737393


