56

 C     1.5889015351     -0.3002522733     4.168228735
C     0.7789392201     -1.4196129488     4.1336320134
C     1.3015795631     -2.3863959379     3.1961982259
C     2.6959938601     -0.4603853644     3.2433549328
C     2.5609994852     -1.8105634856     2.6769269899
C     2.6392187812     0.6344540771     2.354859775
C     0.7872586053     0.8593883147     3.797564133
C     1.4595530752     1.4692428572     2.7365211308
C     -0.5748714517     -1.0204623046     3.7435319306
C     -0.5858819217     0.4081321604     3.5495560617
C     0.2676790557     -2.6623905926     2.2800785789
C     -0.9110371143     -1.8124488488     2.6388710377
C     0.5289863787     -2.9199481982     0.8878698318
C     2.8347691519     -1.9774114404     1.3510303611
C     1.918881503     -2.763355412     0.4876958513
C     2.9517056752     0.5041685522     0.9543829654
C     3.2623084831     -0.8349745618     0.5269389961
C     2.3849803681     1.4392697548     -0.0123737045
C     0.7478663479     2.1787519008     1.7387441474
C     1.4079698473     2.4472895809     0.4624332941
C     -1.2958685319     0.9552736188     2.4708345302
C     -0.6933272795     2.0867367635     1.770990371
C     -1.7440776933     -1.3154959764     1.6093619609
C     -2.103918455     0.077274373     1.6182332905
C     -0.5112742583     -2.7207226943     -0.0847555269
C     -1.7558827487     -2.046749065     0.3366988043
C     -0.1542395807     -2.587116034     -1.5171136283
C     2.2044389648     -2.422441845     -0.8285688994
C     3.0289309829     -1.1952963131     -0.8076544978
C     1.2172369398     -2.2697859015     -1.807258702
C     2.3018955834     1.057584115     -1.4180010112
C     2.5272488402     -0.3162460753     -1.7580600741
C     1.4922272441     -1.0355829421     -2.5220526675
C     1.4256145796     1.7586858715     -2.3115744723
C     0.6675089652     3.1819500574     -0.4762623468
C     0.777515505     2.9112442143     -1.8853371031
C     -1.4191274051     2.6588881268     0.6956901914
C     -0.7455141967     3.4072671707     -0.2610068993
C     -2.814038838     0.6300380325     0.4626559541
C     -2.5739839949     1.9773904087     0.0803361906
C     -2.6655123753     -1.610855313     -0.6202567465
C     -3.2711718042     -0.2793029473     -0.5372139161
C     -1.0979509409     -2.1163626981     -2.4437458319
C     -2.4558591027     -1.8844641969     -2.0301316159
C     0.4895154265     -0.3801491808     -3.2689278755
C     0.5223336339     1.0546303936     -3.2607183384
C     -0.7756651692     -1.0547951493     -3.4025200853
C     -0.5438736938     2.9623319218     -2.5209337012
C     -1.4621713103     3.2269469627     -1.5291294176
C     -2.6072762309     2.3651767203     -1.3086199463
C     -0.6939363177     1.8063804765     -3.3781284938
C     -3.4546398417     0.1638249515     -1.8901375594
C     -3.02629051     -0.8694151094     -2.8046827051
C     -1.9727980159     -0.2923941026     -3.6037509818
C     -2.9267850886     1.4224877736     -2.3006053538
C     -1.9350837305     1.1205677528     -3.3836981533


