56

 C     1.5746982871     0.0114136674     3.8448281634
C     0.7569148221     -1.1456725849     3.6447955859
C     1.3395746133     -2.0344381599     2.6787639773
C     2.6307117759     -0.0790369567     2.8940385628
C     2.5887063186     -1.3936485063     2.2835759864
C     2.587105097     1.0436008598     2.003075216
C     0.7491372985     1.1141866228     3.4532760547
C     1.3746073529     1.7727842774     2.3341171114
C     -0.6252232205     -0.7387182421     3.5119421687
C     -0.6201584417     0.7107932461     3.3205422796
C     -1.4630932962     -1.5263022625     2.7618023004
C     0.4993749506     -2.6625483472     1.6940354075
C     -0.909364875     -2.5810887737     1.9226562488
C     0.9685686491     -2.7824448655     0.2908309331
C     3.0494228069     -1.5319649614     1.0019977421
C     2.3166386253     -2.3740010773     0.0296363264
C     3.0246288757     0.9193928875     0.6491514045
C     3.5277361199     -0.3764194678     0.266238268
C     2.3710591664     1.7625807286     -0.3606567243
C     0.5886545551     2.3987544284     1.3423818303
C     1.1791692093     2.5288733638     0.0073192693
C     -1.4646090914     1.3186099137     2.3594148483
C     -0.873108814     2.354656644     1.5069950465
C     -2.5664801114     -0.8970393811     2.0360950807
C     -2.5812347073     0.5202830884     1.82598038
C     -1.7861011478     -2.6813082282     0.8215681021
C     -2.8823204533     -1.7485839407     0.9523281485
C     0.022506653     -2.7409146816     -0.8417644197
C     -1.3683800467     -2.7187623965     -0.5310336178
C     0.4176643102     -2.1589985534     -2.140037672
C     2.7177194063     -1.9796507814     -1.256725345
C     3.4860400257     -0.7529733189     -1.1026132858
C     1.7901416496     -1.8128219066     -2.3418136401
C     2.4990869619     1.3772679378     -1.7483450294
C     3.0716153816     0.1273869757     -2.0861467812
C     2.1219858475     -0.581101626     -2.982198081
C     1.4164765503     1.5977010013     -2.7139419655
C     1.1435558718     0.3187963624     -3.3984156023
C     0.3111917918     2.9816127709     -1.0470844074
C     0.3820301064     2.4246504374     -2.4045456908
C     -1.6642604505     2.8393357337     0.4393488846
C     -1.037816294     3.2203874685     -0.7871091832
C     -3.2504928943     0.9701051995     0.6306235304
C     -2.8853337251     2.1949830361     0.0697133722
C     -3.2369565207     -1.2800313295     -0.3413728316
C     -2.3351946323     -1.9352784568     -1.3028351488
C     -3.5545340072     0.0575249458     -0.4926917376
C     -0.5454525884     -1.3726301393     -2.867698545
C     -0.1942883638     -0.1230296407     -3.4801837104
C     -1.9256616405     -1.2439714779     -2.4212686523
C     -0.9919516396     2.1392356858     -2.8663808635
C     -1.8593385686     2.7616687509     -1.9362154237
C     -2.9634828696     2.1081909437     -1.4093519728
C     -3.2305466687     0.7498618003     -1.739744066
C     -1.289758191     0.8191598155     -3.2859638424
C     -2.4015798203     0.1095814704     -2.6909340104


