56

 C     1.5871583929     -0.0527881303     4.3489975349
C     0.7384315668     -1.2094033181     4.4076866068
C     1.1758285357     -2.0990298603     3.3913688833
C     2.4893578853     -0.2322097623     3.2328502655
C     2.3132089192     -1.5483144987     2.6819971295
C     2.4576458946     0.9111832644     2.3354691257
C     0.7740538601     1.0407505257     3.9506413054
C     1.4150243777     1.7801248396     2.8722016262
C     -0.5778082061     -0.805265646     3.9648246709
C     -0.6002058393     0.618598715     3.7680787153
C     0.0409458755     -2.570338387     2.6100504416
C     -1.0671804805     -1.6658453357     2.9001348422
C     0.2710831848     -2.9272605635     1.3146684346
C     2.4431087065     -1.7498803045     1.2852171753
C     1.5724757726     -2.722019648     0.6871393686
C     2.5895685924     0.7592703137     0.938826205
C     2.8108087355     -0.5998866233     0.4306428168
C     1.9321280503     1.7403933666     0.0258903997
C     0.6091914918     2.4495007231     1.9998822624
C     0.9662050158     2.5904090368     0.5947173812
C     -1.379009468     1.1723506471     2.7215023672
C     -0.8438090104     2.3265435303     2.0565552318
C     -1.8511620539     -1.1600337214     1.8415411977
C     -2.1957930854     0.2660926756     1.8851129387
C     -0.7335840164     -2.7166613354     0.2811825187
C     -1.7918748768     -1.8165148758     0.5022126301
C     1.3588951274     -2.7478751975     -0.7026282319
C     -0.0785916069     -2.7897483921     -0.9961246343
C     2.7583629936     -0.7692936223     -0.9482072038
C     2.1830527494     -1.9782330814     -1.5394193769
C     1.8484568408     1.5109644721     -1.420223142
C     2.491937635     0.3257411376     -1.8855207238
C     0.7556989171     2.1016317339     -2.2323557925
C     -0.2206810639     2.9521762995     -0.1307461842
C     -1.3324447748     2.7335203639     0.8022243928
C     -0.3624786754     2.7600370878     -1.5218130945
C     -2.8093509813     0.7969665245     0.7562205705
C     -2.511345592     2.156410984     0.3032818627
C     -2.4067701718     -1.2079456142     -0.6820296912
C     -3.1103922504     0.0099186277     -0.4431837338
C     -0.6186980413     -2.2275126841     -2.1726732323
C     -1.8919801489     -1.4849261744     -2.046155917
C     1.7150978635     -1.6787310764     -2.8164546148
C     2.0737616976     -0.2741201558     -3.1031757992
C     0.3555755925     -1.8612987676     -3.2011621961
C     0.4532090133     1.5004206006     -3.5102883919
C     1.0955405558     0.2917336403     -3.8877617345
C     0.0485277249     -0.768237811     -4.0869892585
C     -2.208403271     -0.5478062549     -3.0986527564
C     -0.9431928141     1.3069880365     -3.8926073211
C     -1.1650130373     -0.1627800762     -4.0455494976
C     -1.7370908203     2.6111030656     -2.0007417401
C     -2.7464448906     2.2384849198     -1.0669357761
C     -3.2968401326     0.9379335173     -1.5021528559
C     -1.9775632085     1.8152030448     -3.1765255276
C     -2.8666330506     0.6695091943     -2.7810405127


