56

 C     1.5772517833     0.0483537594     3.849314317
C     0.7796211629     -1.1555476559     3.7518815629
C     1.4433776005     -2.128568195     2.9382520908
C     2.6087108516     -0.0825155983     2.905937165
C     2.6529036156     -1.4446499132     2.444940796
C     2.4844585079     0.9870930987     1.9183452768
C     0.7508092655     1.1481469253     3.4455135451
C     1.3630485835     1.8117366775     2.3295008345
C     -0.5668889691     -0.7694772119     3.4472595505
C     -0.5877025495     0.6969343901     3.2661002674
C     -1.303339068     -1.5500973714     2.5574203962
C     0.6844615916     -2.9572434318     2.0341954506
C     -0.7149930756     -2.6768828373     1.8861573835
C     1.3738823387     -3.4297023732     0.8423349679
C     3.0680012005     -1.6669698686     1.1378426064
C     2.5898705101     -2.8100222773     0.4579394597
C     2.7081071807     0.7576416795     0.5325386168
C     3.1296983936     -0.5572917916     0.1498710298
C     2.0230142245     1.5918176969     -0.4512088089
C     0.5766654632     2.4837320624     1.3833275042
C     1.0842114059     2.591656795     0.0231465554
C     -1.417002465     1.3197572795     2.3020582866
C     -0.8822523599     2.4478837959     1.5641304735
C     -2.2511161094     -0.9149960958     1.6577630134
C     -2.4051564112     0.4772232063     1.6004185455
C     -1.3861098092     -2.7610535953     0.5821030238
C     -2.3099783037     -1.6974692326     0.4386837138
C     0.6470444695     -3.6450105464     -0.3889014167
C     -0.6679900281     -3.2186720377     -0.5532476202
C     2.5471417617     -2.5000671004     -0.9807244737
C     2.7792679494     -1.084338614     -1.1272433349
C     1.416443134     -3.0711896376     -1.5122083213
C     1.8503124391     1.0944046664     -1.820889851
C     2.0186754923     -0.32533663     -2.0750852258
C     1.004154916     1.8281977313     -2.7218320592
C     0.2626962615     3.3012847698     -0.9257892696
C     0.3371599792     3.0158246523     -2.3049592717
C     -1.6883890837     3.022401612     0.5469402497
C     -1.0995914997     3.6234285701     -0.5880936793
C     -3.046601197     0.9980657944     0.4260313743
C     -2.858494894     2.3272989983     0.0749238872
C     -2.5969277467     -1.0718260991     -0.8395944222
C     -3.1413150227     0.2163921453     -0.8150108009
C     -0.7770727296     -2.461590093     -1.8233632843
C     0.5523430447     -2.3194557032     -2.3512162935
C     0.9591794064     -1.0296542344     -2.8109846646
C     -1.7608718474     -1.4515085573     -1.9972984392
C     0.0850884397     1.1178043601     -3.560918061
C     -0.0859918493     -0.2548655838     -3.3733040605
C     -1.4811529548     -0.466029909     -2.9827012484
C     -1.0474242408     3.0069358579     -2.8400828165
C     -1.924227272     3.3590366775     -1.7829690657
C     -2.937392169     2.4731946328     -1.3965661806
C     -3.0212117505     1.1540504833     -1.9452680778
C     -1.2237484597     1.7897813861     -3.4955003532
C     -2.1746590873     0.811952501     -3.029910874


