56

 C     1.455717922     0.1045795477     4.1216709567
C     0.6424587138     -1.0721461541     3.8724631196
C     1.391486655     -1.9810297787     3.1276983173
C     2.6004221302     0.0100022901     3.22503449
C     2.6523125606     -1.2870234351     2.7012026766
C     2.5771197331     1.108827163     2.2861464717
C     0.7037035345     1.2051862896     3.7001381018
C     1.4525138314     1.934268127     2.6994729065
C     -0.6423087511     -0.6656765485     3.3250090484
C     -0.6270178122     0.7730480174     3.2866920542
C     -1.267587031     -1.3835853594     2.2554698241
C     0.8466519944     -2.6328860114     2.0073395727
C     -0.5226636827     -2.4621896106     1.6075103963
C     2.8201736286     -1.5148241379     1.3286010527
C     1.8737505681     -2.5786405119     0.965202783
C     2.8201661555     0.9180611916     0.8822276418
C     3.0028209722     -0.4420947382     0.377939648
C     2.2772631897     1.9313654566     -0.0421998856
C     0.7450056464     2.6632208313     1.759301792
C     1.2580652885     2.8234409957     0.4338624531
C     -1.3619282507     1.491382445     2.2953030621
C     -0.7085030267     2.6066516185     1.6898516968
C     -2.3113231436     -0.6881230796     1.5012078464
C     -2.3782940996     0.7780203279     1.5359297492
C     -2.8407212668     -1.3606777971     0.3581248626
C     -0.8608912183     -2.8604009677     0.2393281988
C     -2.0556781658     -2.3925831287     -0.3213737917
C     1.5820078854     -2.8531717548     -0.326154528
C     0.209561122     -3.1956414896     -0.6960243836
C     2.7313551562     -0.7482485403     -1.0347321305
C     2.1577489812     -2.042040599     -1.3819096203
C     2.2490073605     1.6596517307     -1.4404533658
C     2.4635516031     0.3021522984     -1.9419302781
C     1.3037150809     2.3025377246     -2.2919504162
C     0.1480667292     3.2333387549     -0.4093225304
C     -1.075593245     3.0411255859     0.3771880082
C     0.1698893439     2.9805968718     -1.7679793295
C     -2.9457559887     1.4698915702     0.409795795
C     -2.2191488555     2.5594904133     -0.2232694068
C     -3.546948042     -0.6427149191     -0.6391567139
C     -3.5772817721     0.7397669079     -0.6289685066
C     -2.1815921617     -2.1580488699     -1.7738436894
C     -3.0316390254     -1.0617814195     -1.9531917586
C     0.0991228489     -2.9169237725     -2.0614182232
C     1.2917871807     -2.1942315804     -2.4836506983
C     -1.0418846173     -2.252173046     -2.6029559733
C     1.5582169753     0.1219087596     -3.0715016561
C     0.8143029528     1.3237540763     -3.2156410452
C     0.8675613341     -1.0837288105     -3.2546888258
C     -0.6030076734     -1.1071204738     -3.3781233357
C     -1.0347722758     2.4245988571     -2.4207616675
C     -2.2288870114     2.3123375697     -1.6868256022
C     -3.0672348414     1.2099484903     -1.9274252156
C     -2.6560712105     0.0862618626     -2.7227795918
C     -0.6164072711     1.3529325067     -3.2977008838
C     -1.3623866586     0.1093582829     -3.3737794623


