56

 C     1.5264528339     -0.0713133961     3.7658615577
C     0.7352008747     -1.242725988     3.6596260906
C     1.273246449     -1.995336094     2.5581426256
C     2.6230076998     -0.1043561326     2.8494659372
C     2.4386658642     -1.2616440779     2.0424370394
C     2.6581382508     1.1761329268     2.1830508727
C     0.7213446511     1.0563656531     3.433579112
C     1.3835792071     1.8506184889     2.4341438399
C     -0.6412460927     -0.8249486783     3.5589215355
C     -0.641461279     0.633132919     3.2837636302
C     -1.4944779001     -1.6303538649     2.8679176137
C     0.4198732674     -2.6916011267     1.6675109452
C     -0.9761092328     -2.7512554327     2.0832277258
C     0.7272838333     -2.6953917822     0.2181323012
C     2.7228685425     -1.2191522604     0.6336453244
C     1.8551473347     -1.9024316702     -0.318201522
C     3.1786780633     1.2263790132     0.9271955599
C     3.4074175626     -0.0311294093     0.1985437491
C     2.6754749236     2.1855659102     -0.0343610456
C     0.6435562046     2.414196013     1.3663538948
C     1.3539390053     2.7097465769     0.0919706659
C     -1.4385630373     1.1907386204     2.2709736507
C     -0.8134099963     2.2013847763     1.3727854617
C     -2.6130526324     -1.0430705923     2.1280516047
C     -2.5868572033     0.3748581033     1.7878665908
C     -1.9768135694     -3.0365518738     1.1459165016
C     -3.0509691177     -1.993224906     1.2042565784
C     -0.3386937006     -3.0004698201     -0.6704965843
C     -1.665842944     -3.2268733538     -0.1861000398
C     -0.4846526653     -2.2788176786     -1.9245322686
C     1.8198417746     -1.439841009     -1.7142512881
C     0.5544932515     -1.5348644165     -2.4721108894
C     3.4690544237     0.2863496539     -1.155423252
C     3.1503127121     1.7350781361     -1.3095102628
C     2.7324981238     -0.4094900092     -2.1277745339
C     2.4766509967     1.9445482293     -2.4736984623
C     2.3046977581     0.6163857617     -3.0997056724
C     0.5976916063     2.9473074833     -1.1512095232
C     1.1801432303     2.5969552769     -2.439605371
C     -1.5127698126     2.537671398     0.2007578108
C     -0.8203225908     2.8606082187     -1.0622540121
C     -3.2116598014     0.7354084366     0.5846732756
C     -2.7569483367     1.9110909724     -0.1113547364
C     -3.402832859     -1.6209721598     -0.1304570399
C     -2.5870612456     -2.4258248298     -1.001983756
C     -1.8860416338     -1.8677509839     -2.0726162841
C     -3.5563614709     -0.2590544837     -0.4308595118
C     -1.6107212066     2.2691862925     -2.1091960614
C     -2.7438191724     1.6365282438     -1.4947916789
C     -2.1944423259     -0.5345171232     -2.5233289383
C     -3.0748584302     0.2573565193     -1.6977340044
C     0.1370255933     -0.4541063632     -3.3606072219
C     1.0636538398     0.6006327206     -3.6608319377
C     0.3837839549     1.8792823234     -3.3801233257
C     -1.1686790077     0.121488814     -3.2531817324
C     -0.9650545687     1.5920720345     -3.1524705585


