56

 C     1.5465649421     -0.019398665     3.8206971302
C     0.7343749229     -1.202065397     3.5795705014
C     1.3554738592     -2.0700879101     2.6330630842
C     2.5986090648     -0.0757011474     2.8982773632
C     2.6098638771     -1.3959401226     2.2752009253
C     2.5643074226     1.0833110899     2.0212678473
C     0.7240411625     1.0972092272     3.4554520161
C     1.3563792747     1.7975093403     2.3587312942
C     -0.6226664594     -0.7958239477     3.3970441129
C     -0.6187428633     0.6706452468     3.271272008
C     -1.4211168696     -1.531106505     2.5374042564
C     0.5682876366     -2.7034716578     1.6049273016
C     -0.8473679469     -2.5416341964     1.6847777775
C     1.1644596816     -2.9010655     0.2634584938
C     3.11992886     -1.4959188815     1.0145857236
C     2.5014782798     -2.4147968488     0.0282184547
C     3.0098212895     0.9732991275     0.6778818511
C     3.5651316507     -0.3081387311     0.2900576884
C     2.3352303946     1.7983134639     -0.3367070025
C     0.5694317512     2.4385629922     1.371929463
C     1.1467555324     2.5590736836     0.0355103576
C     -1.4716774487     1.3247190856     2.3418060625
C     -0.8916745553     2.3883680907     1.5317298548
C     -2.5045719423     -0.8730413814     1.82922862
C     -2.5997581361     0.5543585099     1.7933804951
C     -1.6828666528     -2.5820290979     0.4996174306
C     -2.7643922485     -1.6342912709     0.640023459
C     0.3061348607     -2.9511944232     -0.8859832427
C     -1.116300287     -2.7787773544     -0.756275345
C     0.6967742489     -2.3781908797     -2.1662746642
C     2.9088982473     -1.9960711856     -1.2442641114
C     3.5404240272     -0.6803285676     -1.0682040784
C     1.9970787259     -1.9027078274     -2.3502654591
C     2.442998906     1.3876733983     -1.7184345801
C     3.0609507055     0.1699076406     -2.0607880269
C     2.140052703     -0.6014623344     -2.9375877722
C     1.3065221008     1.5067923046     -2.6353133376
C     1.0428433096     0.1939867081     -3.2504511815
C     0.2614083697     2.9856747475     -1.0232527894
C     0.2790687653     2.3279085382     -2.3371979369
C     -1.6932481872     2.9129546831     0.4744084456
C     -1.0684284872     3.2718869577     -0.7660689865
C     -3.3616915586     1.1157720072     0.7068648102
C     -2.9517570643     2.3489524008     0.1520270847
C     -3.3348192811     -1.0230737048     -0.5002700995
C     -3.791928943     0.2885968452     -0.3962661205
C     -1.5931857127     -2.0142081429     -1.90788965
C     -0.437847704     -1.6480815605     -2.7021279014
C     -0.3150694085     -0.32157758     -3.2081778509
C     -2.6785555768     -1.1734324629     -1.8123828318
C     -1.0994868758     2.010170511     -2.7396438853
C     -1.9151433365     2.7863799496     -1.8951826255
C     -3.086372033     2.2778779333     -1.3385991541
C     -3.488071241     0.9851462554     -1.6563470946
C     -1.4328397675     0.6250218585     -3.0286459455
C     -2.663713935     0.133544687     -2.4658122497


