56

 C     1.5408917536     -0.2539149358     4.1517312364
C     0.7210522328     -1.3654044702     4.2192863246
C     1.1657410239     -2.3597466807     3.2545844411
C     2.5112248237     -0.4795688345     3.1034558171
C     2.3006759522     -1.8070741828     2.5439796252
C     2.4377218112     0.6155720991     2.2062080131
C     0.7020135134     0.8722572529     3.72343874
C     1.3027761952     1.4800747842     2.5949357465
C     -0.6513679285     -0.9830446352     3.8971823216
C     -0.6672502254     0.4520655975     3.6347678948
C     0.0259302797     -2.7303135475     2.5011255399
C     -1.1194426001     -1.8423112909     2.8886673968
C     0.1746498863     -3.0306640368     1.1509966119
C     2.4116646359     -1.9763313881     1.134758078
C     1.4186521763     -2.7855377745     0.4860307479
C     2.7341597217     0.4831635191     0.8345796104
C     2.9000027458     -0.8607695541     0.3160708118
C     2.2973752955     1.5654674425     -0.0603119324
C     0.5142418656     2.1029148424     1.5990324139
C     1.1173470056     2.3295127246     0.2734395198
C     -1.4664753342     0.9532363652     2.594847369
C     -0.920115121     2.0098030199     1.7397777021
C     -2.0213065021     -1.3724072925     1.8908779942
C     -2.4147953096     0.0328270005     1.9468404773
C     -0.8963329178     -2.7835694396     0.1935611556
C     -2.0340859489     -2.0252040531     0.5737410353
C     1.1124396172     -2.6577588679     -0.9264038672
C     -0.324826335     -2.6389457311     -1.1093438509
C     2.8762579415     -1.0077018764     -1.0990957774
C     1.9135321297     -1.9138153114     -1.7532061481
C     2.668578275     1.4267417864     -1.4407709502
C     2.9906617354     0.1038052998     -1.9247554724
C     1.9378040471     2.0745137812     -2.4576567748
C     0.2792783024     2.8654558769     -0.8018956407
C     0.7231189402     2.7381880029     -2.1784573232
C     -1.7258617525     2.4627058279     0.6623893127
C     -1.1276421217     2.9207312801     -0.6003238213
C     -3.2019061867     0.5477746378     0.8994110501
C     -2.9789061938     1.8861669245     0.4147610417
C     -2.7484400483     -1.4132416432     -0.4998819619
C     -3.5056073655     -0.2525000721     -0.2513368028
C     -0.9200428043     -1.8518355393     -2.1561635444
C     -2.2095700951     -1.3444387773     -1.8639464896
C     1.3834550909     -1.2555721854     -2.9368919877
C     2.2224705705     -0.1226602725     -3.1557085137
C     1.6884853613     1.0977752702     -3.5584276864
C     -0.0497382303     -1.1505066756     -3.1310656706
C     -0.2222154056     2.3295617027     -3.198908548
C     0.3487840324     1.1855610612     -3.9138960405
C     -0.543796651     0.0791146587     -3.7090477816
C     -2.0516593038     2.5658809995     -1.6535953756
C     -3.1473172433     1.8832976791     -1.0364010633
C     -3.4506940847     0.5847816665     -1.4344295055
C     -2.6612810642     -0.0936021691     -2.4467038082
C     -1.5516499512     2.063438285     -2.8825338031
C     -1.8086602471     0.6460518394     -3.2493178871


