56

 C     1.468018212     0.0188830149     4.1267029614
C     0.6842957906     -1.1828072247     4.1255054273
C     1.3670558693     -2.1741889898     3.3785222967
C     2.5238216899     -0.1726203858     3.1295064492
C     2.5116581027     -1.5020514105     2.7163102704
C     2.4489500413     0.8629405527     2.1232099225
C     0.6548857449     1.0369555872     3.5888707111
C     1.3175706162     1.6840445803     2.4717494588
C     -0.6874147799     -0.8421906833     3.7346059787
C     -0.701284377     0.5758264097     3.3836528385
C     -1.4010760118     -1.7119225531     2.9285295145
C     0.6946769291     -2.9320072479     2.3966912958
C     -0.7295562097     -2.8805588278     2.3388014473
C     2.4704648626     -1.8226659156     1.3283303839
C     1.4307610229     -2.8113602992     1.1278013768
C     2.6483641054     0.5767831713     0.7457825113
C     2.6847344409     -0.8191507037     0.3260793093
C     2.1953794718     1.5961844222     -0.1972733791
C     0.5659302138     2.3670202305     1.5087632807
C     1.1918752245     2.5808403698     0.2166468527
C     -1.4423937728     1.0826091972     2.2896636923
C     -0.8847719046     2.23136217     1.5652304424
C     -2.3213132092     -1.1772874953     1.9145930173
C     -2.3374811553     0.1969442687     1.5496806287
C     -1.3307220863     -3.09138332     1.0906797228
C     -2.4132256884     -2.1340156887     0.8768138445
C     0.8000767404     -2.9375367593     -0.1369039075
C     -0.614570693     -3.1989025742     -0.1283719238
C     2.3184696861     -1.1400966305     -1.0370558844
C     1.3722919216     -2.2296146235     -1.2837519536
C     2.293182409     1.2937855037     -1.5684241178
C     2.4286075266     -0.0851560337     -1.9954017752
C     1.53394745     2.0282839971     -2.5975192617
C     0.4462295919     3.276529834     -0.769761592
C     0.5987166016     3.0044616367     -2.1954411782
C     -1.6133336157     2.7215734132     0.4866409272
C     -0.9493143316     3.4776349579     -0.5433073671
C     -2.7374020573     0.5469946814     0.1704594055
C     -2.580808021     1.8891793422     -0.2119316597
C     -2.4774383405     -1.7886603411     -0.4844810283
C     -1.4482304426     -2.6054183116     -1.15970129
C     -2.7323162514     -0.4655062703     -0.9010912642
C     0.5642150446     -2.1252417543     -2.4557927858
C     -0.8935148415     -2.16130762     -2.3128659275
C     1.7746317017     -0.172240697     -3.2599554015
C     1.2025106303     1.125555663     -3.6309942838
C     0.8237252576     -1.1638893737     -3.4543872338
C     -2.3340204317     -0.0882424814     -2.2738543284
C     -1.4501610976     -0.9858392883     -2.9978552692
C     -0.1876141959     0.9247535215     -3.9613920162
C     -0.4395025978     -0.4758359103     -3.8240340165
C     -0.7171669247     3.0168743566     -2.7905428697
C     -1.6649729829     3.3963469452     -1.7873617012
C     -2.5121417796     2.2713473222     -1.6055727906
C     -1.1589388952     1.8121117227     -3.4469580729
C     -2.2543601546     1.2818725425     -2.6278397076


