56

 C     1.3648857508     0.0928674295     4.4497941495
C     0.6513839087     -1.0713416473     4.0299787212
C     1.5219372731     -1.9028860885     3.2924438286
C     2.654628906     0.0816902268     3.725622802
C     2.7862089789     -1.1463249756     3.0536921601
C     2.758645143     1.2701800841     2.9573016827
C     0.6256789055     1.2039095007     3.9698554528
C     1.4848137829     1.9931198188     3.1639794484
C     -0.5909821319     -0.6933183428     3.3762385097
C     -0.621194245     0.7508539193     3.3365439753
C     -1.086060609     -1.4184203852     2.263777455
C     1.1083584291     -2.5247014392     2.1042538636
C     -0.242071112     -2.4322208387     1.6324055679
C     3.0214192533     -1.2040966576     1.6562267507
C     2.1646668523     -2.2647304517     1.1293919115
C     2.9593455084     1.2362750222     1.5564119703
C     3.1336269354     -0.0016171608     0.8436153033
C     1.0378902156     2.5375388016     1.9542971397
C     2.0171879164     2.1984519254     0.9481690844
C     -1.1752328059     1.431657862     2.2212977976
C     -0.3522650431     2.4652394755     1.5844302705
C     -2.0697994931     -0.7460486801     1.4337811894
C     -2.1023972781     0.7150788107     1.3687548267
C     -2.5921988534     -1.48049392     0.3386868581
C     -0.4920501394     -2.7749230248     0.2367488696
C     -1.7465306322     -2.4835147066     -0.3279388902
C     1.904613875     -2.3462275881     -0.2041409628
C     0.613110386     -2.7958778436     -0.6812699015
C     2.7418937796     -0.0607455055     -0.5758675111
C     2.3589579607     -1.3185381986     -1.1103127404
C     1.6896907909     2.2034856586     -0.4091669054
C     2.1957128334     1.1289459667     -1.2676739174
C     -0.6168082262     2.7896847544     0.2567698901
C     0.4262329695     2.7970223733     -0.7359574903
C     -2.6101254508     1.3469371686     0.145436854
C     -1.8394439367     2.4092136461     -0.4145861178
C     -3.4002242304     -0.8813254438     -0.6292176184
C     -3.3840634037     0.5635239982     -0.7915103033
C     -1.9684292242     -2.3515782305     -1.7444492124
C     -3.1191958797     -1.4877960222     -1.8993236436
C     0.4496421316     -2.3733296479     -2.0402843262
C     1.5442690791     -1.4409578123     -2.286166226
C     -0.8433195203     -2.1856552705     -2.6323498416
C     1.5925491424     0.9925300811     -2.5311558792
C     1.3278935775     -0.328795528     -3.0939703071
C     -0.1896378794     2.6407594369     -2.0147674871
C     -1.6404586817     2.5414661339     -1.8413700904
C     0.4669085395     1.8379407012     -2.9623392198
C     -3.3499231248     0.8387728122     -2.1761306674
C     -3.1603195458     -0.4719085661     -2.8741770069
C     -2.4058015923     1.7571909152     -2.7257083143
C     -0.944281392     -1.1840163176     -3.692912243
C     0.1409896655     -0.2918985932     -3.8655771979
C     -0.3443649219     1.1027169415     -3.8904561411
C     -2.1324792936     -0.3425658179     -3.7925263875
C     -1.7234838734     1.0788011901     -3.8185997824


