56

 C     1.4818216602     -0.2778400762     4.6550002517
C     0.6313446547     -1.3303859063     4.4487418862
C     1.1343304352     -2.1441002654     3.3437890473
C     2.5709564103     -0.4099478049     3.6462856031
C     2.2908043741     -1.5436054462     2.7537194882
C     2.7218799926     0.8238143675     3.0546051765
C     0.7266709565     0.9364730489     4.3045693199
C     1.5334435094     1.6869851284     3.4798017292
C     -0.6694218836     -0.8492816539     3.9729496183
C     -0.6026442132     0.5473706599     3.7578767563
C     0.0554484058     -2.5285832152     2.5254939607
C     -1.0922116551     -1.6797616134     2.8951898376
C     0.2776662252     -2.7934965569     1.1670578501
C     2.3318480212     -1.4050376405     1.3003811517
C     1.427103287     -2.2191209904     0.4778948298
C     2.8441298076     0.9721613261     1.6601967404
C     2.7579983118     -0.1323767077     0.7256287679
C     1.0433707766     2.3039518544     2.3170565359
C     2.0838275946     2.1599373465     1.3144336423
C     -1.1057871658     1.1075030693     2.5005870554
C     -0.3160144188     2.1450621358     1.84742346
C     -1.8935112592     -1.1560687295     1.8667236048
C     -1.9314522307     0.2803092915     1.6206448872
C     -0.9395584561     -2.915540362     0.4535297717
C     -2.003583517     -2.0344292322     0.754879785
C     -0.9322749005     -3.054957709     -0.9532422804
C     1.2893897472     -1.9835003609     -0.9586904045
C     0.1744458246     -2.5998206335     -1.6875015591
C     2.4793313275     0.190218606     -0.6703396022
C     1.8816177111     -0.8032699211     -1.569570046
C     1.8174640614     2.4382774122     0.0283226153
C     2.2800004769     1.5647807987     -1.0323845965
C     -0.5845855763     2.50323399     0.4733948342
C     0.5133587014     2.9107504988     -0.3563289292
C     -2.3061879677     0.7203471781     0.2726019834
C     -1.7366626596     1.9459855312     -0.2383676842
C     -2.6317006168     -1.6467149874     -0.4958358809
C     -2.13245538     -2.4866915259     -1.5220264599
C     -2.8510625273     -0.2513262514     -0.7330948312
C     -0.3455713113     -2.0686435663     -2.9444201845
C     -1.8046028073     -1.95027864     -2.7946951086
C     1.4207246234     -0.3759762556     -2.8667880138
C     0.3342993962     -1.0480818814     -3.5964145018
C     1.5778295744     1.9586448154     -2.194322284
C     0.4725687517     2.8324908145     -1.7745668469
C     1.3186690806     1.0228711017     -3.2122869215
C     -1.8832693419     2.2743212183     -1.631079696
C     -0.7564010996     2.7462440512     -2.4219135619
C     -2.9588232396     0.1066570451     -2.1065368246
C     -2.4497976244     -0.7761035809     -3.1791007455
C     -2.6376863334     1.4424322602     -2.5238542559
C     -0.3978870953     -0.0758137102     -4.358450492
C     0.1984699671     1.2264983074     -4.0794291108
C     -0.8342159923     2.1524583959     -3.7422438957
C     -1.7901386142     0.0775722932     -4.1346428221
C     -2.0833057994     1.4634026585     -3.8406526905


