56

 C     1.1397673482     -0.093382375     3.9696689104
C     2.2910823498     -0.2868587079     3.240501372
C     2.1736655161     -1.5604465334     2.4951417291
C     0.2738985836     -1.2768516055     3.7499068424
C     0.8595117773     -2.0942300632     2.7119905537
C     -1.0113286456     -0.8216777565     3.5814845405
C     0.3356814312     1.1026649048     3.7605521781
C     -1.0214276535     0.6656246364     3.6220332663
C     0.7864635926     2.0667908791     2.8409828138
C     2.7944764175     0.7038920038     2.3313394513
C     2.0838641728     1.9082602237     2.1804476757
C     2.7076810837     -1.3894370177     1.2221035921
C     3.2208411428     -0.00743127     1.1279166086
C     2.0962357079     -2.0181680192     0.0930606515
C     0.0966811541     -2.5061290211     1.5790743652
C     0.8111131768     -2.6636244893     0.3096654725
C     -1.828389012     -1.2557900402     2.5052171912
C     -1.3399950264     -2.1524345409     1.5209980427
C     -1.8727655696     1.1232655694     2.6202020606
C     -2.5671956935     -0.0567244364     2.0740908212
C     -0.1327893255     2.6440271451     1.8645801932
C     -1.4641952809     2.1672591403     1.6990220038
C     1.9920518198     2.5194749378     0.8696313923
C     0.6419000252     3.0299737291     0.699035712
C     3.2045220076     0.6172005613     -0.0944420141
C     2.6348908988     1.9507916419     -0.2289044129
C     2.4257272706     -1.4833016948     -1.2364218409
C     2.9081835271     -0.1321191251     -1.3049169546
C     1.6828050019     -1.9535569172     -2.3562260966
C     0.0321468463     -2.9819638473     -0.8494309952
C     0.5498607077     -2.8120834562     -2.1294635035
C     -2.0624171904     -2.1751905383     0.2362759576
C     -1.4293709358     -2.723589168     -0.8924133457
C     -3.1530105203     -0.0103960035     0.8609284992
C     -3.089343835     -1.1850161915     -0.0158555429
C     -2.0837425433     2.202409909     0.361267539
C     -3.0711265399     1.2012959671     0.035884146
C     0.0626843361     3.0663135594     -0.5618010406
C     -1.3350589609     2.7097610851     -0.7410354902
C     2.0545642254     2.0285750698     -1.5507181051
C     2.3432200467     0.7881376369     -2.2494957606
C     0.8051912466     2.6291460795     -1.7294619901
C     1.3037329597     -1.0618671384     -3.4091223332
C     1.4731302452     0.3244618584     -3.2619958717
C     -0.5490639812     -2.3899077496     -3.0122651456
C     -1.7530628632     -2.3023403533     -2.2421929157
C     -0.103548292     -1.3133788138     -3.7567449733
C     -3.3076915696     -0.7099021146     -1.3132948486
C     -3.2523673176     0.7654035315     -1.2807655871
C     -2.5907093257     -1.1781496591     -2.438863362
C     -1.4764419479     2.1750498787     -2.0798802419
C     -0.1508390925     2.0793955459     -2.6776326067
C     0.1780078012     0.9913623549     -3.4811011687
C     -0.8127875346     -0.0532196634     -3.7552245627
C     -2.4330211997     1.1855877688     -2.3584560649
C     -2.0718925141     0.0030426927     -3.1548768367


