56

 C     1.3757278286     -0.1072638631     4.5831632246
C     0.5827711447     -1.2294914735     4.250799717
C     1.3345800324     -2.165283155     3.4618891161
C     2.5891675114     -0.2228988116     3.780464488
C     2.5685055173     -1.4818564761     3.0877900828
C     2.7282691574     0.946873096     3.005928333
C     0.6592391319     1.0477267904     4.0732456486
C     1.5046774842     1.7727765124     3.2301429543
C     -0.7077215512     -0.7800338928     3.7230688751
C     -0.6305057565     0.6562986414     3.5195915126
C     -1.3440721825     -1.5437893801     2.7570497145
C     0.7640000024     -2.7350993312     2.2999800389
C     -0.619618522     -2.6044901307     2.0489767024
C     2.6778059273     -1.5464682455     1.6719888369
C     1.6273919287     -2.4463028192     1.1666316033
C     2.9207787601     0.8936588143     1.6119858707
C     2.9334740216     -0.3638629037     0.8965807806
C     1.0485956582     2.2744688501     1.9899330843
C     2.0408416054     1.9005980462     1.0213937298
C     -1.1609237615     1.2543324894     2.3184674557
C     -0.3195581044     2.1697258754     1.5609620947
C     -2.198268101     -0.902806454     1.800351542
C     -2.1325716591     0.4968151266     1.5409486855
C     -1.1225370929     -2.6633900027     0.7207901756
C     -2.2916759572     -1.7858964724     0.6715120659
C     1.1419814393     -2.3675684092     -0.1476459586
C     -0.2862890999     -2.6268690423     -0.4245627233
C     2.5561774681     -0.3575152752     -0.5007404727
C     1.8148815781     -1.4666855938     -1.0641973152
C     1.7851220296     1.9604003317     -0.3384589911
C     2.3518630751     0.9174628958     -1.1753348722
C     -0.5897561895     2.4368683697     0.1620920556
C     0.5347347828     2.5667354335     -0.7479247852
C     -2.5829879739     0.9709901426     0.2289171112
C     -1.8768392634     2.0682235391     -0.4271111904
C     -2.8384110845     -1.3641506798     -0.4934218532
C     -3.2180521702     0.0183373826     -0.6374863158
C     -0.890743845     -2.2755672046     -1.7281070091
C     -2.2745023008     -1.8204504039     -1.7685486134
C     1.3099767742     -1.3745251986     -2.4041388286
C     -0.0642317285     -1.8037122949     -2.7656634314
C     2.0269594811     0.9327785204     -2.5458261415
C     1.6305195092     -0.287511274     -3.1989707465
C     0.3130756142     2.6694624974     -2.152387757
C     1.1380585152     1.9201385335     -3.0417868081
C     -2.0942525865     2.3016305153     -1.8435977636
C     -1.008969855     2.6686339593     -2.6711754717
C     -3.3181440339     0.2254580104     -2.0423145274
C     -2.7247062666     -0.9462808838     -2.7575741617
C     -2.8873695376     1.3746884172     -2.6424407541
C     -0.549823197     -0.9456736278     -3.845248646
C     0.511359793     -0.0089765667     -4.1250809083
C     0.2854271309     1.3638868784     -4.1247433246
C     -1.0308095936     1.8673885142     -3.92358227
C     -1.8870407055     -0.4487120968     -3.7993793964
C     -2.1055807926     0.9967737899     -3.8471944523


