56

 C     1.5303637911     0.0255964906     3.8837244788
C     0.7478306047     -1.1847493458     3.6558161066
C     1.4124150848     -2.015072213     2.7209260414
C     2.6014642044     0.0536430516     3.0148874425
C     2.6327395461     -1.2459440771     2.3468628111
C     2.5217158687     1.2929038749     2.214281021
C     0.6903905737     1.1851886364     3.6641463989
C     1.3659956603     2.0229681255     2.7061423787
C     -0.5905436058     -0.749956821     3.4108873933
C     -0.6112375995     0.73822644     3.3707655884
C     -1.3357791386     -1.4532756538     2.4853601976
C     0.6695552381     -2.709792586     1.7066883201
C     -0.7529683594     -2.5329397998     1.7319262049
C     1.2927590852     -2.9593266398     0.3905000136
C     3.063866074     -1.2783716776     1.0616459223
C     2.5343962942     -2.2753931213     0.1099534124
C     2.7872981636     1.2533706699     0.8288838115
C     3.2885523017     -0.0155371337     0.3209084214
C     2.0248785058     2.1070784251     -0.1101634119
C     0.5943427423     2.745439654     1.8169538089
C     1.0081525944     2.9327007106     0.4428762945
C     -1.4251755206     1.4242741541     2.3960239498
C     -0.8483597534     2.5751350263     1.7890491013
C     -2.3311356127     -0.7903694593     1.6486319638
C     -2.4078519644     0.6500394023     1.6106486272
C     -1.5569474987     -2.6764460046     0.5468773354
C     -2.5490684481     -1.596999656     0.5026785929
C     0.4634354251     -3.23308578     -0.7340523258
C     -1.0013774552     -3.1528623998     -0.6305176017
C     0.7794732538     -2.7316587406     -2.0640776178
C     2.778705464     -1.7599023459     -1.1662796146
C     3.1424592904     -0.3405947587     -1.0154034774
C     1.8699676867     -1.8672621417     -2.2311908646
C     1.8469144045     1.6912541373     -1.5201747441
C     2.3798596795     0.4197337378     -1.9394007927
C     1.6429734382     -0.5096182887     -2.7658980253
C     0.7413513705     2.1593857112     -2.2632484456
C     -0.161884972     3.3216924949     -0.3186697359
C     -1.3198757873     3.0617296466     0.513654679
C     -0.2260284558     3.0585544477     -1.6935354045
C     -2.9451221791     1.2207348347     0.435869017
C     -2.4674417425     2.4939499871     -0.0571227165
C     -2.9824735683     -1.0244797803     -0.7443245346
C     -3.2938965049     0.387047532     -0.7329831223
C     -1.5310489608     -2.6851048655     -1.8724151922
C     -0.4442626633     -2.3992189242     -2.7251015125
C     -2.4678276375     -1.5842172403     -1.9498413022
C     0.3889527731     -0.1389229582     -3.323287133
C     0.0235063339     1.2606906508     -3.2043522956
C     -0.6667389243     -1.1131650081     -3.3430330128
C     -2.0222127381     -0.710077775     -3.0230632015
C     -1.4963573223     2.7569016631     -2.2899891879
C     -2.5786898842     2.457730999     -1.4880915078
C     -3.1343929441     1.1536367496     -1.8994851441
C     -1.3202646056     1.6330063826     -3.2301241393
C     -2.355351626     0.6517315402     -2.9917432701


