56

 C     1.618290052     -0.0257839363     3.9039652593
C     0.7632244755     -1.1124338484     3.6756240822
C     1.2972003073     -1.9893698196     2.6646455186
C     2.6170655832     -0.0737911545     2.8731727555
C     2.4762105088     -1.329169299     2.1488229274
C     2.4582654659     1.0735473767     2.0713031245
C     0.7918305803     1.1446180715     3.6763606144
C     1.3229202468     1.8752295002     2.5994718124
C     -0.639331193     -0.6768872541     3.6236791278
C     -0.6131875954     0.7797605539     3.6451832813
C     -1.4918007463     -1.321091386     2.7363675284
C     0.4132227146     -2.6495545521     1.7566510421
C     -0.9934811264     -2.3292819355     1.8003808103
C     0.9354684884     -3.0201484556     0.5045197842
C     2.8470003557     -1.4506959365     0.7831033188
C     2.2422716893     -2.5479961751     0.0844431575
C     2.7396506787     1.0418978202     0.6593262447
C     3.1317151554     -0.2185124707     0.0212083011
C     2.0920494443     2.033545439     -0.1171981444
C     0.4524931324     2.5791956315     1.7018611839
C     0.917608506     2.7569835981     0.371058892
C     -1.4760262451     1.4926528701     2.8105809198
C     -0.9648673719     2.4772692742     1.886209592
C     -2.5409145672     -0.5821909871     2.0586435452
C     -2.5609766843     0.8093186101     2.1193906722
C     -1.7749199238     -2.2683522134     0.6020500014
C     -2.7888540826     -1.2457144516     0.7858009775
C     0.1014266374     -3.0809987145     -0.6946615721
C     -1.2278900697     -2.5398778953     -0.6980651919
C     2.2759231413     -2.6078533564     -1.3333495932
C     0.9333729514     -2.9152420559     -1.8128909491
C     3.0648830749     -0.2804376335     -1.4053160664
C     2.7064890505     -1.5042036905     -2.0554450468
C     1.9560000677     1.9078561051     -1.5375754235
C     2.4380983709     0.7771133393     -2.177297791
C     0.0311283322     2.991051235     -0.7280024533
C     0.6865647729     2.5096472185     -1.9290150726
C     -1.863308114     2.5547111647     0.7446673481
C     -2.8917054906     1.5601852737     0.9248585267
C     -1.3972300112     2.8912177166     -0.5695421294
C     -3.2696949531     -0.5537686002     -0.2952893262
C     -3.4184671365     0.900855178     -0.2003062449
C     -1.6922573629     -1.7802173026     -1.8643247709
C     -2.7955628396     -0.8747085357     -1.6535372969
C     0.5805557008     -2.031240791     -2.8843830304
C     1.7395230382     -1.2252076868     -3.1257231184
C     1.6167849238     0.1693899687     -3.2522788708
C     -0.7350943103     -1.4562426288     -2.9436063954
C     -0.0505295839     1.9890340074     -2.9980747872
C     0.3737590096     0.7040531316     -3.5744690182
C     -0.8064244062     -0.1514401078     -3.5628775444
C     -2.1523180211     2.3998181157     -1.701978999
C     -3.1626666882     1.4220304765     -1.4810525766
C     -2.9238641571     0.3052034267     -2.4137489988
C     -1.4644497109     2.0023698158     -2.9099032988
C     -1.9251740547     0.6938579358     -3.3134366489


