56

 C     1.2294374659     0.1098134542     4.0998118144
C     2.414789458     -0.0588765853     3.4132982608
C     2.3810788899     -1.3486738412     2.6865236235
C     0.4279077229     -1.1172481082     3.8661982415
C     1.0865826906     -1.9164945025     2.8620887895
C     -0.8709166179     -0.7242362493     3.6502481332
C     0.3831081775     1.2531073754     3.8182124311
C     -0.9510732633     0.7425631006     3.7563428235
C     0.7859051367     2.2066942355     2.7764131105
C     2.8653201694     0.9187855581     2.4718045714
C     2.0502991651     1.9795652587     2.0848679387
C     2.915669174     -1.1592070144     1.3863384673
C     3.2936087558     0.2062378294     1.2541136079
C     2.3344343878     -1.8190533571     0.2648985963
C     0.3618822748     -2.3680593793     1.7059262707
C     1.1130049703     -2.5798127179     0.4875018549
C     -1.6265815282     -1.1306180772     2.5053217641
C     -1.0631246767     -1.9969929751     1.5436013489
C     -1.8930102411     1.1910291446     2.8277262502
C     -2.4036693148     0.0401560871     2.0602438457
C     -0.2290423135     2.7915010706     1.9916280871
C     -1.6072939278     2.3874801395     2.1247891934
C     -0.0320279779     3.1196694863     0.5426650335
C     2.1206516175     2.0570078114     0.5890940084
C     2.8904587912     0.9244446694     0.1253759225
C     1.092466829     2.5620116298     -0.2022834257
C     2.4988843849     -1.204258138     -1.036630492
C     2.5585941232     0.2555452772     -1.086593425
C     1.9514595349     -1.8971919394     -2.152300389
C     0.3962313032     -3.0156362903     -0.6571817786
C     0.968731416     -2.9303364739     -1.9274835016
C     -1.6853011808     -2.0242382907     0.2089788762
C     -1.0438208077     -2.7626862284     -0.7970259942
C     -2.8316574907     0.1667023762     0.7378897184
C     -2.617354811     -0.9553030949     -0.1984416048
C     -2.2290324973     2.5644506327     0.875026471
C     -1.266153573     3.1544130357     -0.0696957901
C     -2.8642462199     1.5231974179     0.1946078245
C     -1.491206396     2.6101941584     -1.3665222476
C     -2.6180170048     1.7131574542     -1.2246704834
C     0.898841861     2.0560030854     -1.5833879934
C     1.7371189854     0.9585550345     -2.0500746466
C     -0.4145776203     2.2181291601     -2.2134205311
C     1.5768758502     -1.1908052484     -3.3110796642
C     1.3559881283     0.2214075636     -3.2431381806
C     -0.0853493552     -2.7784684446     -2.928571098
C     -1.322960492     -2.5933672383     -2.2127239307
C     0.3359902274     -1.8056157286     -3.8464072714
C     -2.8138388833     -0.7376594489     -1.5807691498
C     -2.7832297348     0.6516882245     -2.0983329255
C     -2.2110802358     -1.5628412529     -2.6084577769
C     -0.7975044131     1.3786352527     -3.3268823089
C     0.1391400586     0.5125774911     -3.9259455672
C     -0.5266480601     -0.77026081     -4.2499725782
C     -2.0666530664     0.6726470486     -3.3047030655
C     -1.819089836     -0.6994286784     -3.7088410592


