56

 C     1.5676978322     -0.2144404904     4.2524490232
C     0.7533435499     -1.3596306143     4.2502408225
C     1.2129774771     -2.239392616     3.2592534813
C     2.5508396216     -0.3566246839     3.1554953226
C     2.3079004664     -1.5763665364     2.4962239128
C     2.4946340591     0.8200126721     2.341693515
C     0.7533327537     0.8645067685     3.8394563703
C     1.4234731802     1.6642524103     2.8638250096
C     -0.6295372564     -0.9625371775     3.826630987
C     -0.6294601111     0.436658254     3.564785901
C     0.0859052673     -2.7263675189     2.5211044791
C     -1.0736130186     -1.8309025593     2.8159884476
C     0.2773297273     -3.0827570547     1.2242823459
C     2.325141572     -1.6650724363     1.0412156643
C     1.4759109516     -2.6542577793     0.4750008339
C     2.6954958569     0.7796526086     0.9268842402
C     2.6036778944     -0.490968843     0.216803409
C     2.3393453471     1.9824185244     0.2683591266
C     0.6941832064     2.4830658079     2.0055403797
C     1.4346677189     2.9313708747     0.8714507283
C     -1.2971520203     0.9703936365     2.4276708295
C     -0.7659409222     2.2241998017     1.8426164071
C     -1.8671011307     -1.3527977413     1.7325384277
C     -2.0766030318     0.0778507013     1.5789948518
C     -0.8229956124     -3.0897524235     0.3025392638
C     -1.9261808158     -2.2039213353     0.5357801579
C     1.1207321743     -2.6475224343     -0.8887974117
C     -0.2607505303     -3.1392489256     -1.0076379174
C     2.2409150721     -0.4686926673     -1.2089318415
C     1.5888910502     -1.6371196665     -1.788166936
C     2.1649078965     2.0457391422     -1.1711501203
C     2.0871501197     0.8279083857     -1.89830703
C     0.7787866453     3.580633861     -0.1930894055
C     1.3028682986     3.1560456194     -1.4594008933
C     -1.3692342646     2.7194743973     0.6925200446
C     -0.6402728164     3.5757020385     -0.2435738531
C     -2.596897369     0.5800280704     0.2970504487
C     -2.2894471565     1.9117363396     -0.0924985143
C     -2.6295785332     -1.7323890097     -0.607868611
C     -2.9528212281     -0.3286638644     -0.7345057934
C     -1.0421118486     -2.8559965729     -2.1261765382
C     -2.3408071952     -2.2490130419     -1.9027943656
C     0.8483344994     -1.5336014158     -3.0348318096
C     -0.4217614447     -2.1965309511     -3.2119701237
C     1.2327643234     0.8848434021     -3.0739447854
C     0.7347362169     -0.2669818925     -3.6571291989
C     0.169973977     2.9848574663     -2.3315929393
C     -1.0470025923     3.2526842495     -1.5540824721
C     -2.0556454724     2.2331057671     -1.481229804
C     0.1602879247     1.9049585759     -3.1714807525
C     -2.8131392724     0.0160670726     -2.1520651236
C     -2.5126140071     -1.2020540905     -2.8663586124
C     -1.3946756208     -1.2252501032     -3.7414216488
C     -0.7069493185     -0.0490759652     -4.0236768437
C     -2.1770930379     1.2409286957     -2.5159892049
C     -1.0868190627     1.1888352879     -3.4877219003


