56

 C     1.4926690481     0.0009415186     3.9607620473
C     0.6899005901     -1.1893883261     3.8884037147
C     1.3248386758     -2.1002844863     2.9544446622
C     2.5485574502     -0.1104733975     3.0729001619
C     2.4531172561     -1.4133830496     2.3720836843
C     2.6185091717     1.1144273103     2.2956579016
C     0.6615224075     1.1187932955     3.4950277451
C     1.3413904185     1.849612746     2.4917637819
C     -0.6525635403     -0.7994166164     3.6374655157
C     -0.6506405072     0.6423379914     3.2705173005
C     -1.4784020606     -1.6791990869     2.9267134705
C     0.5105025416     -2.8883492596     2.1278909484
C     -0.8938698882     -2.8184747691     2.3228748922
C     0.7067721902     -2.9134197048     0.6772068952
C     2.6675220731     -1.4402260021     0.9750185907
C     1.7311574321     -2.1718488814     0.0665858993
C     3.1587559045     1.0385186057     1.058141617
C     3.342234296     -0.2855066184     0.418246414
C     2.7441614572     1.9831236169     0.0303400314
C     0.6449516428     2.3632664775     1.3702798582
C     1.4609843628     2.6404789744     0.1565513559
C     -1.391751788     1.1039949107     2.1457588713
C     -0.7799627984     2.0739393091     1.2367872278
C     -2.4840837575     -1.1531000631     2.0066521482
C     -2.4727424068     0.2267916675     1.6453859427
C     -1.5706082587     -3.0302327782     1.0496198713
C     -0.6100786081     -3.0651969235     0.0253563756
C     -2.6733222317     -2.1445404497     0.9560894033
C     -0.9031713037     -2.4846337277     -1.2554087629
C     1.5294557672     -1.7342842976     -1.3423219097
C     0.2157157027     -1.8827213281     -2.0073270215
C     3.2577351573     -0.0397166719     -0.9304438689
C     3.0956816701     1.404135645     -1.2006430461
C     2.406938087     -0.744490001     -1.8508149296
C     2.3454610045     1.5749507151     -2.3645259961
C     1.9876020033     0.2206013368     -2.8501702783
C     0.8176425771     2.9654506848     -1.0445478007
C     1.3357763468     2.5626326885     -2.3383786595
C     -1.4423950745     2.369679209     -0.0439998426
C     -0.658206561     2.9435794876     -1.1342743796
C     -3.1054258092     0.5726452674     0.4060438271
C     -2.6300143576     1.6950361457     -0.4056381307
C     -3.0786979722     -1.7517038544     -0.3128484663
C     -2.2355211136     -2.0251852564     -1.4691815249
C     -3.5744121088     -0.4316211642     -0.4700582343
C     -2.9066908692     1.3733245451     -1.8133074443
C     -2.5009692322     -0.9761185075     -2.446828911
C     -3.3109229261     0.0069991394     -1.8212026243
C     -0.0991713237     -1.0309990137     -3.0970937337
C     0.7905150921     0.0348522814     -3.5199439129
C     -1.4778161462     -0.5468674126     -3.3103278712
C     0.213752088     2.4041216168     -3.2035479853
C     -1.0152908691     2.7457131123     -2.4716929183
C     -2.0522659882     1.8085294487     -2.8281621929
C     -0.0204411     1.1922488737     -3.8400562566
C     -1.4243837937     0.8206550372     -3.667823463


