56

 C     1.3801892706     0.0402461082     4.0139798455
C     0.5457231228     -1.1025766611     3.7947786155
C     1.0687488442     -1.7964572455     2.6728085069
C     2.4492643105     0.0251931846     3.0334144104
C     2.2738627547     -1.0899784618     2.1864941668
C     2.5697457401     1.3218018007     2.4333062891
C     0.6103696232     1.1616462304     3.6786027193
C     1.3164699248     2.0158167383     2.7279652608
C     -0.8211342652     -0.6531064834     3.6722417067
C     -0.7763550363     0.7875700971     3.4704787387
C     -1.6941861372     -1.4244688973     2.9125397721
C     0.2172048805     -2.4630130026     1.7285038314
C     -1.1812413708     -2.4533783945     2.0085685092
C     0.6947409909     -2.6202007688     0.3399172115
C     2.5764141095     -1.0105293733     0.7730543107
C     1.8213247288     -1.8461702663     -0.1770254423
C     3.1021059457     1.3813637718     1.1582627754
C     3.185082249     0.187402933     0.3217572875
C     2.6477239677     2.4303917974     0.3194800782
C     0.600553518     2.6579095143     1.6929098035
C     1.3745784238     3.0180802179     0.5158730064
C     -1.5234416156     1.393244069     2.4203427695
C     -0.8483920394     2.3612960743     1.5198030454
C     -2.7268605329     -0.7496830878     2.2176741616
C     -2.62670666     0.6246030337     1.8955286124
C     -2.1391632129     -2.5642308492     0.9178567627
C     -3.0848897737     -1.5003375456     1.0241025063
C     -0.275891686     -3.1046668878     -0.5971137638
C     -1.7174602077     -2.9142808815     -0.3415555588
C     -0.0728713434     -2.9636432878     -1.9633197914
C     1.8977246213     -1.5323341067     -1.6147740962
C     0.9863043702     -2.191129976     -2.503172146
C     3.0127080829     0.6236278504     -1.0603695183
C     2.7730854806     2.0242873867     -1.0583224021
C     2.3983895082     -0.2053477264     -2.0383321158
C     0.7685035863     3.1440365701     -0.7974821668
C     1.6888873049     2.5666804889     -1.7921831809
C     -1.3811598336     2.5109925271     0.2237159441
C     -0.5870612127     2.9037350714     -0.9321338491
C     -3.0375248345     0.7214640924     0.5035669145
C     -3.2951269754     -0.6185755902     -0.048571758
C     -2.4432132532     1.6551713747     -0.3003960295
C     -2.2831842101     -2.2700883334     -1.5103127145
C     -1.351392883     -2.5113203213     -2.5681465607
C     -2.8935729964     -0.9732751802     -1.3833073472
C     0.4127448252     -1.4866842568     -3.6374068035
C     -1.0755974693     -1.5848452543     -3.5296984513
C     1.7193045477     0.4973020213     -3.1038078186
C     1.2087105091     1.8357890822     -2.8611309244
C     0.7137403474     -0.1753616291     -3.8571692437
C     -1.1187724356     2.2325381165     -2.1103299645
C     -2.2149784996     1.3985443413     -1.7168312317
C     -2.4482369719     0.1011878978     -2.2997938473
C     -1.6130228008     -0.2418141804     -3.4295409503
C     -0.2394882905     1.8049484029     -3.1357022644
C     -0.5432790708     0.6206278144     -3.8095976109


