56

 C     1.33802304     -0.0672279026     3.609184627
C     2.5647356778     -0.280792333     2.9718990825
C     2.529072769     -1.6156818736     2.3191592907
C     0.5083695901     -1.2081431929     3.2733186632
C     1.2016345781     -2.1461827398     2.4539939537
C     -0.8132251127     -0.7794596762     2.9800666492
C     0.5515225235     1.0911471862     3.2993010006
C     -0.8288233819     0.6583175043     3.0522291156
C     1.087594531     2.0687316219     2.458960353
C     3.109084815     0.6502178654     2.0611408999
C     2.3904342084     1.8599470058     1.8367286937
C     3.1544202998     -1.523220971     1.0764452071
C     3.5906142374     -0.1145482376     0.8959716691
C     2.5886043678     -2.2263263611     -0.0091520241
C     0.5244897458     -2.7274191205     1.3247847747
C     1.3111930593     -2.9092182869     0.1488097387
C     -1.5991011846     -1.498092089     2.0289401117
C     -0.9373874734     -2.5232392788     1.1829809094
C     -2.7340308407     -0.7960793981     1.5605011292
C     -1.7215490442     1.3938620708     2.2406199719
C     -2.8219247986     0.6341442659     1.7208569614
C     0.2240136916     2.7393827075     1.492562824
C     -1.1870539849     2.5128690425     1.4442017161
C     2.3176604258     2.4107084915     0.5157972156
C     0.980393159     2.9718799267     0.3012985123
C     3.5573345654     0.4351638662     -0.3609816628
C     2.9687241733     1.7701568847     -0.5514302319
C     2.63393947     -1.686793254     -1.3363986106
C     3.1497095701     -0.3846877948     -1.5322172822
C     0.6884617922     -2.9367022598     -1.1436912314
C     1.4399321713     -2.10259749     -2.0521902913
C     -1.5290750107     -2.8015995484     -0.0654819446
C     -0.6999451834     -3.0157501902     -1.243118531
C     -3.390400633     -1.1637935543     0.2971773562
C     -2.7748997525     -2.1397384248     -0.5090664886
C     -3.5705237062     1.1271608198     0.5976435642
C     -3.9067579349     0.0034721605     -0.3031045669
C     -1.8249662717     2.7908253584     0.1942173886
C     -3.0861230341     2.1706830843     -0.1484950336
C     0.3440908049     2.8962945498     -0.9805315085
C     -1.0633017839     2.8468347399     -1.0064502862
C     2.354480465     1.7711853215     -1.8302692661
C     2.5010896433     0.4590808297     -2.4487330444
C     1.0500745316     2.2445041024     -2.0615625684
C     0.740863911     -1.2020382442     -2.929469858
C     1.2704909212     0.122944302     -3.0692027381
C     0.3804182352     1.2530594345     -2.8846081503
C     -1.3385467752     -2.3551763257     -2.3273827859
C     -2.6368945149     -1.855870166     -1.8871602348
C     -0.6850939557     -1.349844946     -3.0520282953
C     -3.5600961052     0.3766060755     -1.6396152874
C     -3.0526100752     1.7357214426     -1.5546223919
C     -1.791783605     2.0535104374     -2.0410386978
C     -1.0481513403     1.1041026473     -2.8647045197
C     -2.8554858933     -0.5593871306     -2.4285941639
C     -1.5937195976     -0.1829029448     -3.0774896736


