56

 C     1.1354872403     -0.0553113138     3.7784499313
C     2.2870326949     -0.3929045258     3.1350983098
C     2.2042004074     -1.7980319824     2.6465258784
C     0.2605305007     -1.2643995347     3.7235623298
C     0.8843984355     -2.2640995808     2.852538353
C     -1.0119631403     -0.8478377645     3.511723895
C     0.3483582985     1.0808195566     3.3198210502
C     -1.0056143224     0.6244892509     3.3622419525
C     0.7902801375     1.8913026135     2.2272105446
C     2.8490315531     0.4277377373     2.1048205026
C     2.1473480515     1.6215353136     1.6929198735
C     2.8294719135     -1.824419081     1.3901456051
C     3.3844616671     -0.483637089     1.1123039058
C     2.1969961969     -2.5178609451     0.3487329788
C     0.1320718989     -2.8155674759     1.7540465918
C     0.8718867618     -3.0436698029     0.5451716082
C     -1.8433402354     -1.4003465615     2.4698407276
C     -1.3149275334     -2.4516573517     1.6104248325
C     -1.9076444198     0.9426826345     2.3703083146
C     -2.5556532572     -0.3161326176     1.9024232192
C     -0.2333545907     2.4493255575     1.3226020502
C     -1.6006809859     1.9759894163     1.4386672458
C     0.1602691942     3.0210189739     0.0145743847
C     2.4589625274     2.0841703563     0.3833546431
C     1.4807420803     2.7907327703     -0.4426189199
C     3.5249981032     -0.0681634952     -0.2013864099
C     3.247494749     1.2882032719     -0.4829968093
C     2.2759710414     -2.0204011922     -1.0266320078
C     2.9567482613     -0.8516026121     -1.3142689901
C     0.2202245884     -3.0403564426     -0.7529469278
C     1.036025893     -2.3388810357     -1.7096825351
C     -1.928444497     -2.5658563908     0.3517595564
C     -1.1667790359     -2.9572371179     -0.8327236887
C     -3.1342729308     -0.3856860047     0.6112418886
C     -2.9438827998     -1.610951471     -0.1117751196
C     -2.5042072106     2.0447445986     0.3188061739
C     -3.2634571572     0.8315845144     -0.1151458336
C     -0.8446796514     3.226561877     -1.0112396365
C     -2.2150028693     2.8216934676     -0.7874314959
C     -0.5651772316     2.9104545379     -2.3759087672
C     1.7185070195     2.4056845293     -1.8280875949
C     2.6844152005     1.3841087399     -1.8148540217
C     2.3983823949     0.0821097046     -2.2900847569
C     0.6364091004     2.258624554     -2.7086637153
C     0.4615111554     -1.4612382719     -2.6889100047
C     1.1397257174     -0.1805669503     -2.959893603
C     0.3485378894     0.9523491792     -3.3038833556
C     -1.7300249895     -2.3218852566     -1.9598341214
C     -2.8822722472     -1.5503524515     -1.524712831
C     -0.9657178915     -1.5278234315     -2.845302102
C     -3.2820343567     0.8494832008     -1.5469552709
C     -2.6945924286     2.0975238264     -1.969529632
C     -1.6678578561     2.1008900805     -2.8887068499
C     -1.1093857582     0.861165922     -3.4118662234
C     -2.9384476169     -0.337796245     -2.2463091242
C     -1.7610656798     -0.3303121795     -3.1469659786


