56

 C     1.4878844518     -0.0464688086     3.9486491747
C     0.702130195     -1.2065856053     3.8816018976
C     1.3183721055     -2.1186244679     2.9220516758
C     2.5412816365     -0.1640737135     2.9626965756
C     2.4486256168     -1.4285056777     2.2961741303
C     2.5975058417     1.036293378     2.202692742
C     0.673305963     1.0513679767     3.5069687943
C     1.3445960914     1.7731778578     2.4764686126
C     -0.6815217272     -0.8239933009     3.6537562198
C     -0.6687281114     0.5986201224     3.2933216122
C     -1.4896828841     -1.7062388559     2.9517236374
C     0.4849691383     -2.9405752349     2.1637739662
C     -0.9169498503     -2.8954812264     2.3818456402
C     0.6930336739     -3.046100106     0.7009052412
C     2.649290963     -1.4924130987     0.8764856728
C     1.7494855174     -2.3431682436     0.0600060816
C     3.045643471     0.9533419622     0.9003511711
C     3.1729313897     -0.3240139857     0.2429840006
C     2.6088765261     1.9375731707     -0.0625649678
C     0.6242397178     2.3453670158     1.4078155005
C     1.4082841777     2.6722491193     0.1935346974
C     -1.4154610525     1.0869981461     2.1872533935
C     -0.8091303958     2.0822364181     1.2940025878
C     -2.4688969665     -1.1783665252     2.0008962063
C     -2.4707149133     0.2023252232     1.6537775318
C     -1.5528695782     -3.0687398942     1.1005166648
C     -0.590450889     -3.2202377207     0.0600344122
C     -2.6461662931     -2.1801604435     0.9484857975
C     -0.86971447     -2.6742164374     -1.2432055653
C     1.5391457205     -2.0075286188     -1.319535983
C     0.2494985043     -2.1508575952     -1.9716508775
C     2.9720057679     -0.0554864337     -1.1654624463
C     2.8224960532     1.3845398513     -1.3724438028
C     2.2283798151     -0.9221415954     -1.9581957848
C     2.1230930048     1.8806360673     -2.4675775392
C     0.73351452     3.188808684     -0.9342871249
C     1.2402112498     2.9772039518     -2.2472471897
C     -1.4794563196     2.4063124376     0.0308895673
C     -0.7317858973     3.0794238578     -1.0225884955
C     -3.0733030284     0.5382370283     0.3913487742
C     -2.6329873047     1.6915055115     -0.3744108664
C     -3.0008732215     -1.780914364     -0.3363367312
C     -2.1336049247     -2.0751877173     -1.4887594881
C     -3.4968588096     -0.4739028836     -0.509027306
C     -2.7928794902     1.3441254658     -1.7945882438
C     -2.2579082675     -0.9749398556     -2.4313073879
C     -3.1318367861     -0.0263010608     -1.8336178142
C     0.1147533249     -1.137213062     -2.9750717341
C     1.3714460329     -0.3934786585     -3.0173867659
C     1.3973934798     0.9476320567     -3.3632415232
C     -1.1451542008     -0.4887056763     -3.2136497879
C     0.1119745771     2.874632308     -3.152733978
C     -1.0906335965     2.9578359792     -2.398242566
C     -1.9312264694     1.8358847126     -2.7663225042
C     0.1477587831     1.5866344475     -3.731031442
C     -1.1233318421     0.9116581176     -3.5405240635


