56

 C     1.4941877215     -0.0598332637     3.970631061
C     0.7076692036     -1.2259255201     3.6414680839
C     1.3891654726     -2.0278392953     2.684014163
C     2.6453550231     -0.0889293604     3.1360745485
C     2.6645837474     -1.3483565603     2.4132502772
C     2.6910587071     1.12357522     2.3603793189
C     0.7007168     1.043992632     3.5551827669
C     1.4198611867     1.810418848     2.5534652248
C     -0.6554509319     -0.8259910508     3.3937873957
C     -0.6533160009     0.6319369213     3.2998498375
C     -1.3950385071     -1.5614558221     2.4885416745
C     0.6544392837     -2.6590280994     1.6171324715
C     -0.7676275381     -2.5646413372     1.6652199136
C     1.2803371686     -2.75630167     0.2749005153
C     3.2139133709     -1.3751496654     1.1307911538
C     2.5192092961     -2.0846429664     0.0416879248
C     3.2503718641     1.0832907854     1.0781222693
C     3.7075791317     -0.163011112     0.5687655547
C     2.6214786391     1.8229331808     -0.0198910189
C     0.7158351221     2.3757950706     1.4711694234
C     1.3836345296     2.4701912049     0.1441001271
C     -1.412902576     1.2767427551     2.314979165
C     -0.7512868555     2.3065329383     1.5047843749
C     -2.4153247938     -0.9064497641     1.6932688125
C     -2.5104032647     0.5117872348     1.6781124096
C     -1.5708089555     -2.6598317775     0.4663369254
C     -2.6318041326     -1.6736519803     0.4927672322
C     0.4484142319     -2.9492007142     -0.8686679242
C     -0.9879808145     -3.0201819841     -0.7507016806
C     0.7635688697     -2.3435800933     -2.1776491732
C     2.7748171388     -1.3940865684     -1.2173882229
C     3.4092741694     -0.1842914301     -0.84694083
C     2.8799693814     1.0685945663     -1.2494533243
C     1.8228623014     -1.3927473186     -2.2836732486
C     1.9635138411     1.0824174865     -2.2922483901
C     1.5293078238     -0.1446788405     -2.9417349509
C     0.5646998031     2.7077129801     -1.0618340343
C     0.8958733559     2.0447689486     -2.2907237087
C     -1.4655759677     2.8136141511     0.4046793152
C     -0.7911440075     3.0903542895     -0.8910416635
C     -3.1829758636     1.0915444169     0.5779498715
C     -2.8054492774     2.4009430395     0.1408644985
C     -3.114157165     -1.0447694616     -0.701781953
C     -3.531521815     0.3074965266     -0.6092221919
C     -1.5564173801     -2.4826407383     -1.951335648
C     -0.4572948524     -2.0869771499     -2.8199107027
C     -2.5329057061     -1.4898559311     -1.9666855425
C     0.2244374216     0.1290838971     -3.4779274852
C     -0.138635439     1.5196793828     -3.1490568883
C     -0.7783993304     -0.845535716     -3.4419842944
C     -2.1379530786     -0.4959591482     -3.0059768583
C     -1.7434107954     2.8103183196     -1.9028102859
C     -2.9942076558     2.4457751834     -1.2787616316
C     -3.3852867462     1.1884659718     -1.7500106964
C     -1.4630753082     1.878969713     -2.9577798294
C     -2.505779857     0.8186086452     -2.8570841225


