56

 C     1.4308297345     0.1680753393     4.2625634088
C     0.6920687168     -1.0282157977     4.2789656989
C     1.4213911253     -1.9928561927     3.5028482732
C     2.5477183155     0.0260476715     3.3062855789
C     2.5602790101     -1.3035385476     2.8712340022
C     2.4903238088     1.0823635906     2.3523958591
C     0.6149165815     1.2226393838     3.7659410342
C     1.3325437477     1.9233137987     2.7328867344
C     -0.6753536134     -0.686458367     3.8539574687
C     -0.7158184017     0.7544147476     3.5007301022
C     -1.3614470911     -1.5560190151     3.0506492861
C     0.7831185832     -2.7563429933     2.5168136068
C     -0.6481712208     -2.7256613748     2.4646157726
C     2.5390439937     -1.6001792105     1.4780752374
C     1.5026794504     -2.6023419457     1.241623872
C     2.682829982     0.8212357193     0.966727997
C     2.7049803335     -0.571758238     0.5172056402
C     2.1974230056     1.8410149062     0.0209751213
C     0.592101628     2.5498739577     1.7657008122
C     1.1343399667     2.706545894     0.435047857
C     -1.4276940696     1.2324320167     2.3535582983
C     -0.8270047528     2.3141138098     1.6273249857
C     -2.2880515842     -1.0569503229     2.0153795596
C     -2.2986780241     0.3187760603     1.5860836955
C     -1.2543301064     -3.0026232636     1.2560268901
C     -2.3867346427     -2.0788202412     1.0531662724
C     0.8518082593     -2.7011570687     -0.0100889106
C     -0.5505687071     -3.049230321     0.0172795683
C     2.2952529123     -0.8635092692     -0.8588165067
C     1.3364163327     -1.9146945993     -1.1484108239
C     2.2688448353     1.5787515202     -1.3522506689
C     2.4443776234     0.191169047     -1.7954984453
C     1.4403628965     2.258737561     -2.3275818376
C     0.0644888603     2.98305471     -0.4556028411
C     -1.1408461429     2.5715864205     0.2629124147
C     0.2008394236     2.841282071     -1.8621501987
C     -2.6392601661     0.6098431946     0.2003782871
C     -2.149619296     1.8546889515     -0.4386060527
C     -2.5183191809     -1.8042508108     -0.2948668112
C     -1.4095428449     -2.492174553     -0.9857254704
C     -2.8591637692     -0.4969711809     -0.7183260599
C     0.5164794261     -1.8095552246     -2.3581578565
C     -0.9297122956     -2.0208167559     -2.2135031494
C     1.8838635965     0.0918548588     -3.0693502523
C     1.3855992745     1.4166991614     -3.4865471364
C     0.9081157707     -0.8898336831     -3.380905798
C     0.2436643463     1.2479393513     -4.2422818525
C     -0.0704330825     -0.2157222995     -4.2242658128
C     -1.0117458853     2.5853316677     -2.589139842
C     -2.1408418272     2.013579547     -1.8485996813
C     -0.9710688824     1.9033917234     -3.8560579687
C     -2.7334314566     -0.3224020756     -2.120649079
C     -1.8514692309     -1.157141723     -2.90752176
C     -1.4388194586     -0.3592119549     -4.0363474069
C     -2.7021982761     0.983496968     -2.7146844411
C     -2.0663775317     0.9661833805     -3.9614166709


