56

 C     1.3977132626     -0.1803654428     4.1995369154
C     0.6034548865     -1.2735683128     4.1995369166
C     1.0854660615     -2.2113978787     3.1644330218
C     2.4385918262     -0.3489800386     3.1644330199
C     2.1455062398     -1.5588015232     2.4093046851
C     2.454404615     0.8287519526     2.4441444279
C     0.5833643283     0.9989214968     3.839790886
C     1.2949847363     1.671119831     2.8662077819
C     -0.7697613027     -0.8634961594     3.8397908878
C     -0.7465796813     0.5424218924     3.4621101438
C     -0.029737203     -2.5903759366     2.4441444314
C     -1.1891571093     -1.7480080961     2.8662077853
C     0.0634451588     -2.9385141651     1.0653574296
C     2.0973584976     -1.5238201423     0.9507858105
C     1.1324499439     -2.3744735381     0.2535186564
C     2.8142986779     0.8477108876     1.0653574257
C     2.60820481     -0.3432712196     0.2535186543
C     2.6837937462     2.1287589045     0.5146585014
C     0.6333798101     2.4322409657     1.85927671
C     1.5397087001     2.959985305     0.9311394851
C     -1.3456623623     0.9776809363     2.2041479252
C     -0.7227371135     2.0767997253     1.4660806797
C     -2.1174734912     -1.3539837874     1.8592767139
C     -2.1984919606     0.045597433     1.4660806818
C     -1.1952321473     -3.2102622089     0.5146585068
C     -2.3393171546     -2.379035755     0.9311394905
C     -1.3341681277     -3.3750522894     -0.881031546
C     0.8668505326     -2.2052021819     -1.173295368
C     -0.3119382511     -2.8163823786     -1.7303832248
C     2.3651434504     -0.1429788967     -1.17329537
C     1.4719650431     -1.0694452042     -1.8943961236
C     2.7975848455     2.3118178076     -0.8810315518
C     2.5821445904     1.1669809243     -1.7303832288
C     1.0646427521     3.5708739805     -0.250189069
C     2.0181710113     3.4411715295     -1.3240304628
C     -1.1233776751     2.3915800625     0.0966301148
C     -0.2656272626     3.2360081943     -0.6937094776
C     -2.6216705952     0.3293567738     0.0966301169
C     -2.0676775136     1.5022556463     -0.6058608666
C     -3.0671102629     -2.1159961741     -0.2501890632
C     -2.6490994653     -2.9827751779     -1.3240304563
C     -3.159710018     -0.74735499     -0.6937094735
C     -1.0401703155     -2.1815028761     -2.8165194307
C     -2.4374912893     -2.1370477879     -2.4306672634
C     -2.9313995219     -0.8074444695     -2.1280557729
C     0.8251407034     -0.5994998149     -3.0857010491
C     -0.4904967194     -1.0898661944     -3.4756374632
C     1.7533022173     1.6633822167     -2.8165194346
C     1.2792269879     2.9785760566     -2.4306672686
C     -0.1379269495     3.0374406778     -2.1280557767
C     0.8849525204     0.8032772735     -3.4756374652
C     -2.0464760139     1.4868518537     -2.0403472086
C     -2.3774999462     0.2811219684     -2.7887120415
C     -1.3056470476     0.0610852596     -3.7085651557
C     -1.0020507716     2.1742653466     -2.7887120434
C     -0.4615626648     1.2228677444     -3.7085651569


