56

 C     1.2875337893     0.0203552724     4.1230004769
C     2.4278591341     -0.2550849262     3.4006496536
C     2.2599549015     -1.5774487867     2.7077124557
C     0.4033321449     -1.1748857263     3.9862129576
C     0.9464372969     -2.0279807086     2.942532685
C     -0.8887824788     -0.7583278656     3.9257554463
C     0.4816370937     1.1757840922     3.8156332755
C     -0.8802363714     0.7281890068     3.9836561685
C     0.811671007     1.9908028037     2.6449099935
C     2.9053314764     0.6521060949     2.4421650824
C     2.0729073735     1.723162839     2.0041710262
C     2.7822061341     -1.4599541853     1.3979325389
C     3.2574945063     -0.1177555423     1.250978073
C     2.107110584     -2.0642470182     0.3001615098
C     0.1192399195     -2.4165142798     1.8119090699
C     0.8001411185     -2.6578914589     0.5602435952
C     -1.7662751387     -1.165938309     2.8297567566
C     -1.2761422514     -1.9622965176     1.7454933536
C     -1.8587146174     1.1513223272     3.1301447625
C     -2.5168342936     -0.0184153712     2.4963529195
C     -0.2721138487     2.4625516576     1.7566044756
C     -1.6145486414     2.089423061     2.0814827617
C     -0.0136547654     2.7639535536     0.3347556683
C     2.1928376659     1.7699387008     0.5379529977
C     2.9343253971     0.6048835799     0.0996984011
C     1.231907521     2.321708274     -0.3085019905
C     2.3446055668     -1.5016640115     -1.0192922777
C     2.6040871751     -0.0689611836     -1.1101631291
C     1.6859527346     -2.1191279836     -2.1197195146
C     -0.0157469896     -2.9427213836     -0.5711660319
C     0.5197845164     -2.907918412     -1.8611602946
C     -1.9250550249     -1.7664838166     0.4204733937
C     -1.3675451466     -2.4310138571     -0.6712709605
C     -2.9048509839     0.3247069085     1.1902411295
C     -2.5402835545     1.7298131445     1.0229856637
C     -2.7226575345     -0.5721140787     0.107268988
C     -1.1212498632     2.9002779531     -0.5398639308
C     -2.3659746811     2.2001952053     -0.2304276326
C     -0.9673617822     2.8093240582     -1.933515308
C     1.2926052136     1.9491084964     -1.7481529165
C     1.9940776136     0.7237062124     -2.1532948121
C     0.2199127353     2.4046043312     -2.5799571838
C     1.4410305707     -1.3871126929     -3.3055700952
C     1.5666256774     0.0149684009     -3.3484934322
C     -0.5206803136     -2.5622586948     -2.8273822966
C     -1.6305491096     -2.0775002486     -2.0756296193
C     0.0699658008     -1.7457213843     -3.804148502
C     -2.7600692709     -0.0337136221     -1.2667850198
C     -2.7320372744     1.3922766359     -1.3793344675
C     -2.0826854468     2.0058156449     -2.4934502978
C     -2.2630589899     -0.8282125521     -2.4104525099
C     -0.2091359709     1.637782272     -3.748397956
C     0.4367390321     0.5019723124     -4.1219182528
C     -0.5617573762     -0.601716342     -4.2402430747
C     -1.6466164689     1.2958690336     -3.5754683991
C     -1.7726955415     -0.1416208735     -3.6070753543


