56

 C     1.4634286241     0.0769076764     4.0325816107
C     0.7633417342     -1.1299516004     3.7813089416
C     1.4887050528     -1.9162430466     2.8406738437
C     2.5910263812     0.133330493     3.0990073493
C     2.7017576767     -1.1514492265     2.4817758317
C     2.45899063     1.2768286363     2.2883589943
C     0.6121756953     1.1646652314     3.7841086386
C     1.2851071578     2.0129470912     2.8201626117
C     -0.6232966112     -0.760646763     3.4823982364
C     -0.7294650391     0.6907575407     3.4781684502
C     -1.2988367176     -1.4702095639     2.5137135788
C     0.7966181214     -2.6748357795     1.8180100775
C     -0.6222701807     -2.5088336485     1.7149544642
C     1.4793733887     -2.9387703222     0.5891962396
C     3.1710042856     -1.199106996     1.1790791058
C     2.7271339888     -2.2572177285     0.3294931239
C     2.6896131922     1.2191627208     0.8426925861
C     3.20925413     0.0012311467     0.3524177455
C     1.8901889276     2.0619674784     -0.0656124052
C     0.520362471     2.7184388768     1.954164387
C     0.942069842     2.9355605783     0.5518608516
C     -1.5234416175     1.3648035322     2.5108170442
C     -0.9456362004     2.5722277232     1.9575465346
C     -2.2754591024     -0.8245618414     1.6767022394
C     -2.4089862599     0.5917537037     1.6201182863
C     -1.2970857885     -2.6024782177     0.4681127432
C     -2.4066079478     -1.6522229525     0.4978745508
C     0.7824341318     -3.0382807349     -0.6703234147
C     -0.6208949078     -2.8494415347     -0.7763448662
C     2.7752182871     -1.8462438459     -1.0161562313
C     2.9493592996     -0.4108352079     -1.0193545186
C     1.6612179076     -2.4323150186     -1.6881615982
C     1.6349342235     1.6557209412     -1.4606857459
C     2.2054123967     0.386714777     -1.9149271126
C     0.4612593961     2.1845241628     -2.1799136463
C     -0.2056731721     3.3366973231     -0.1275062163
C     -1.3654360032     3.0329960024     0.7201359224
C     -0.4986269186     2.9502279859     -1.4421433935
C     -2.883953032     1.1513700809     0.3403812446
C     -2.3492564339     2.4100181697     -0.0904822324
C     -1.9191426298     2.5887007036     -1.4704456518
C     -2.9428001309     -1.158608706     -0.6532018709
C     -3.2936079408     0.2521912117     -0.7117344162
C     -1.2029145473     -2.3173171928     -2.0396727429
C     -2.4503023174     -1.6050625735     -1.9707696815
C     1.1174459335     -1.7626948065     -2.7378059462
C     1.5231415513     -0.350613169     -2.9786082114
C     -0.2889731929     -1.8920074183     -3.0761232763
C     -0.0868330644     1.4703675617     -3.3191290323
C     0.5058647242     0.214742232     -3.7072896632
C     -0.5843000602     -0.7765817962     -3.9024420379
C     -2.3923445201     1.75264799     -2.4768427415
C     -3.1685914325     0.6111387821     -2.0710752693
C     -2.7499531911     -0.543930218     -2.8665657961
C     -1.4905934955     1.3389864411     -3.5058691551
C     -1.7811567351     -0.0871668953     -3.7866283801


