56

 C     1.5092782664     0.079166182     4.157311103
C     0.7330969183     -1.1310260317     3.9077127421
C     1.5141731861     -1.9850057287     3.1468616507
C     2.6638100581     0.0314017659     3.2493718645
C     2.7446032227     -1.2554362641     2.7272026017
C     2.6307081157     1.1581814299     2.3207486074
C     0.7274721648     1.1222368785     3.6787116958
C     1.4662162096     1.9206778066     2.7049429078
C     -0.5791743875     -0.7658105292     3.347817834
C     -0.6049084013     0.6596427247     3.2828895428
C     -1.2087229871     -1.5403211112     2.3179857836
C     0.9890243643     -2.6551825055     2.0131486026
C     -0.4153817379     -2.6151846829     1.716260605
C     2.8900206669     -1.462967498     1.3373180847
C     1.9131816291     -2.4724105567     0.9245576862
C     2.9133339179     0.9949990932     0.9278388523
C     3.1502316717     -0.3704528723     0.4446996444
C     2.2874174243     1.9542525437     -0.0204596726
C     0.7348876303     2.6199843738     1.7727363175
C     1.2195587776     2.7675714308     0.4302369987
C     -1.3384550284     1.3504218584     2.2773445089
C     -0.7121740904     2.4912977583     1.6940508448
C     -2.2363124611     -0.8800198022     1.504046692
C     -2.3154858395     0.5837921852     1.4896528473
C     -2.73380764     -1.5778950955     0.3528702141
C     -0.758127155     -3.0489435361     0.4102242681
C     -2.0093737321     -2.6884667421     -0.1351805466
C     1.506253189     -2.6137770212     -0.4397115676
C     0.1861378511     -3.0652290101     -0.677217385
C     2.9137865204     -0.6513156267     -0.9348290787
C     2.138985118     -1.7687560944     -1.3925872572
C     2.2600012708     1.6472107437     -1.4262379411
C     2.7398515244     0.4058319592     -1.8826724645
C     1.1567726853     2.056578168     -2.3139797032
C     0.0757722134     3.09886897     -0.4239440698
C     -1.0904574726     2.9243682891     0.3911437036
C     0.0364376194     2.7886806061     -1.8141040373
C     -2.8933950089     1.2226711106     0.3623950531
C     -2.2870616574     2.4389113596     -0.1792903288
C     -3.2896877744     -0.8922487177     -0.8111775102
C     -3.4472522403     0.4850054946     -0.7651329011
C     -1.9090881447     -2.5877914318     -1.5765727823
C     -0.5360913235     -2.6758396359     -1.9005887629
C     -2.7207489611     -1.5180219613     -2.0244172157
C     1.4200516907     -1.3328010821     -2.5884657752
C     1.8966485463     -0.0511022727     -2.9525570307
C     0.9524585209     0.9754782663     -3.2410977961
C     0.0392050824     -1.7363721708     -2.8237913236
C     -2.2420441824     -0.7068908383     -3.0750032509
C     -0.3614931205     0.6150997441     -3.6532947561
C     -0.8369120628     -0.7771121567     -3.4300336379
C     -1.2639566846     2.5592802631     -2.4200177436
C     -2.4068533637     2.4391572209     -1.5776399483
C     -3.2026707577     1.2573776117     -1.9629815476
C     -1.4078169523     1.4914240669     -3.3846209231
C     -2.6019229086     0.686811081     -3.062474299


