56

 C     1.0679625014     -0.0043727104     3.966832154
C     2.2455758609     -0.2336866018     3.3363990184
C     2.2864500414     -1.6602692735     2.907952647
C     0.2459591743     -1.2565233511     3.8444349564
C     0.9239142014     -2.1670767132     2.9747324583
C     -1.0286729481     -0.8446359411     3.5731368437
C     0.2443603416     1.1191404018     3.5973164576
C     -1.0892628596     0.6349460198     3.6305094106
C     0.6485387038     1.9725994784     2.4730437972
C     2.6904387867     0.5799083629     2.1934506908
C     1.8459769659     1.6006071515     1.6554625097
C     3.000589785     -1.713687296     1.7503627506
C     3.3272126858     -0.3251825909     1.3194692552
C     2.5130379974     -2.4112702138     0.6158103035
C     0.285291032     -2.6088774115     1.7665984457
C     1.1617705358     -2.9160126599     0.6259630883
C     -1.7190704589     -1.2473557404     2.3837688488
C     -1.0883787418     -2.119296402     1.4572633903
C     -2.0477052922     1.065668847     2.7198089338
C     -2.4823552178     -0.0831847085     1.9264272023
C     -0.3921709425     2.6550165408     1.8336875677
C     -1.7881852408     2.2782784848     2.0493614971
C     -0.2805441466     3.1218273619     0.4482897253
C     1.8237406185     1.7874192823     0.1928824682
C     0.7791777246     2.6417882454     -0.3990848934
C     3.1800489896     -0.2663516008     -0.0641625432
C     2.9430886843     -1.6396563853     -0.5382192108
C     2.4906866693     0.8229047967     -0.6797472039
C     2.3616128784     -1.8522981759     -1.7551181827
C     0.5663965558     -3.0917182768     -0.6529666809
C     1.2929392811     -2.8026984306     -1.8294708508
C     -1.581740363     -2.0595961319     0.0659162265
C     -0.8348922963     -2.7225612466     -0.924776555
C     -2.8810023073     0.0798472363     0.5871073485
C     -2.5225998977     -0.9819300777     -0.3673862643
C     -2.4657672753     2.5025998213     0.8542611025
C     -1.5903589586     3.2159909556     -0.0723391157
C     -3.0485195339     1.4404671277     0.1161258844
C     -1.9111292842     2.8595038489     -1.3948152785
C     -2.8839080985     1.7519768166     -1.2960004749
C     0.488063345     2.5593901108     -1.7906933109
C     -0.8542541293     2.7499209714     -2.3061751576
C     2.0401883589     0.5969562718     -2.0664367479
C     2.022934875     -0.7226228849     -2.6126713711
C     1.1266567458     1.5466283872     -2.6479305271
C     0.3903929331     -2.3428510014     -2.8472702819
C     -0.932787358     -2.3596664816     -2.3207043682
C     0.9013730181     -1.1486172502     -3.4464029249
C     -2.6405509647     -0.6725076211     -1.7400006789
C     -2.8231892264     0.7157737623     -2.2038650786
C     -1.8207832304     -1.34585199     -2.7375908341
C     -1.0176387362     1.8546574999     -3.4176062665
C     0.251729366     1.185595152     -3.688288596
C     -0.0062827732     -0.2060928416     -3.9551341708
C     -2.0073149803     0.8779568     -3.3874435703
C     -1.4070434052     -0.410917685     -3.7240738635


