56

 C     1.4282773148     0.1059444222     4.1746678989
C     0.6302095268     -1.0869329354     4.1883401794
C     1.4510920921     -2.1577672986     3.7692367444
C     2.5850206213     -0.1840367542     3.2795190139
C     2.6600704162     -1.5470742869     3.0822007505
C     2.5319922605     0.6922535882     2.1364002337
C     0.6926997989     1.0897336483     3.5362007393
C     1.451767361     1.618040564     2.4281772184
C     -0.6316763578     -0.8289692521     3.4736449171
C     -0.6420445475     0.5754057503     3.1873530259
C     -1.1269374462     -1.7243114094     2.4666786715
C     0.9340942895     -3.1044946236     2.9256676367
C     -0.3988084859     -2.9788773108     2.3387101362
C     2.7450781466     -2.1016732568     1.7662744662
C     1.8863107254     -3.262773903     1.8009001986
C     2.6137547216     0.2060263218     0.7862660091
C     2.7030575929     -1.2404776353     0.5859435053
C     2.0707411252     1.0785598684     -0.2833598551
C     0.7877649719     2.2899114074     1.436165874
C     1.3815577954     2.3030550567     0.1030235565
C     -1.2878430841     1.1125926413     2.0801385904
C     -0.6620178577     2.2932255075     1.4932144665
C     -1.8220795663     -1.1548745188     1.2640003488
C     -2.0335847756     0.2756889383     1.1489480939
C     -1.8248143616     -1.8827782616     -0.0028937917
C     -0.2778450586     -3.5055438311     1.0380628109
C     1.1788062866     -3.6406571839     0.6977855221
C     -0.9555277129     -3.0241585989     -0.0756637723
C     2.1015311226     -1.7565669605     -0.641578624
C     1.3506683913     -2.983333777     -0.5329731803
C     0.0373748811     -3.0276756351     -1.1581923242
C     1.8066229826     0.5915219056     -1.624075676
C     1.7494823865     -0.8628633087     -1.7520238809
C     1.1199824093     1.4708258284     -2.6286978189
C     0.7430883336     3.1073626375     -0.8334567874
C     0.6851735851     2.7787976042     -2.2273832499
C     -1.3267832887     2.9372898241     0.4834300034
C     -0.5615216692     3.6913516028     -0.4802990083
C     -2.5833720379     0.9013346284     -0.0784798944
C     -2.4491633164     2.3266338795     -0.2068335219
C     -2.1836492749     -1.2364156035     -1.2714307713
C     -2.733887997     0.1167875011     -1.3041669464
C     -0.1840488837     -2.3181946542     -2.2587000956
C     0.8348711437     -1.3734444656     -2.7351296355
C     -1.4786527788     -1.681350229     -2.448528978
C     0.3405971446     0.8572360876     -3.694788825
C     0.1668863859     -0.5385987998     -3.6229368911
C     -1.301938387     -0.847172579     -3.5662488303
C     -2.7800211255     0.8280962913     -2.580300341
C     -0.9811650659     1.3888978165     -4.0222172043
C     -1.9665197054     0.3393794595     -3.6694315062
C     -0.5676217707     3.3680879288     -2.7303063371
C     -1.3187298218     3.8867669671     -1.6226671528
C     -2.5078063541     2.9982898575     -1.4807474208
C     -1.4397533423     2.5710409236     -3.5050871452
C     -2.6407597397     2.2508986151     -2.632341146


