56

 C     1.5679917128     0.0090963243     3.8797831843
C     0.6950656168     -1.1139936367     3.7594236083
C     1.0753822364     -1.8990620334     2.6106144864
C     2.4558610892     -0.0187040333     2.7832162394
C     2.2187250081     -1.2367737101     2.0237466613
C     2.2534241991     1.1709095489     2.016262404
C     0.6983801438     1.1540072325     3.7207989714
C     1.0922105883     1.8770033581     2.5602366035
C     -0.679818409     -0.712981794     3.9323216021
C     -0.6800348612     0.7642762398     3.8907525988
C     -1.6561426851     -1.425588778     3.2311111285
C     0.0855216599     -2.488556069     1.7607081835
C     -1.2799140478     -2.3456291237     2.1603303108
C     0.4265208782     -2.6687785137     0.333628016
C     2.4864073013     -1.2760911663     0.6410928154
C     1.6908317798     -2.1594496862     -0.1923114557
C     2.5471889861     1.1987056394     0.6476069396
C     2.9868060297     -0.0414071488     0.0244218862
C     1.8248574906     2.150951229     -0.1950759975
C     0.1167805441     2.3806148236     1.6364706966
C     0.4946137471     2.5403383252     0.2219643939
C     -1.6477398701     1.4194861654     3.1172587714
C     -1.2485278854     2.2172786992     1.9706100669
C     -2.831752157     -0.709627711     2.7810215282
C     -2.8192314072     0.6736296567     2.7117753575
C     -2.303930078     -2.2307795119     1.129085086
C     -3.236631936     -1.2290961331     1.4741157417
C     -0.6359746514     -2.7521679866     -0.6117576604
C     -1.9704117432     -2.3870604209     -0.2223533431
C     -0.4835428324     -2.4095862146     -2.0175666414
C     1.8767771785     -2.0775692337     -1.6246535059
C     0.7487779747     -2.1704245384     -2.5630760425
C     3.2118706511     -0.0360470857     -1.3668015803
C     2.748686479     -1.1377357178     -2.1664111635
C     2.1665407316     2.1728413784     -1.5888391968
C     2.9666787668     1.1260811176     -2.1343656773
C     1.1966583721     2.5193475182     -2.5707535507
C     -0.5373419277     2.5582692792     -0.8099205215
C     -0.1574994606     2.5723287429     -2.1901644921
C     -2.212207856     1.94425423     0.8918985562
C     -3.1821807445     1.0512765599     1.3464451337
C     -3.4535235347     -0.1407208041     0.5733416972
C     -1.8290582766     1.974188229     -0.4875564874
C     -2.4602717381     -1.4548670839     -1.2104473222
C     -1.6144702079     -1.5579953682     -2.3769821276
C     -3.0152983393     -0.2076250621     -0.7737802749
C     -2.3958285532     0.9780084619     -1.3792058754
C     -0.8860378589     1.7542729773     -3.1393582139
C     -1.4201289076     -0.4824998276     -3.2153450496
C     -1.8265041549     0.839611525     -2.6838731916
C     0.9235190696     -1.1921099417     -3.6487568934
C     2.221726921     -0.628201712     -3.4620732549
C     2.4255580155     0.7549158962     -3.4735790923
C     1.347211031     1.6212731381     -3.7442512321
C     -0.1683430023     -0.3212601682     -3.9541332359
C     0.0817729437     1.089423919     -4.0266495996


