56

 C     1.4687491121     -0.226929837     4.3838279528
C     0.6625495844     -1.3330178112     4.3542783344
C     1.1337787681     -2.3279696505     3.3935668078
C     2.4822619086     -0.4341257663     3.3433599811
C     2.2174925863     -1.7136270923     2.6666604522
C     2.4268858688     0.669493776     2.5109942761
C     0.6155345581     0.8854682239     3.9537570218
C     1.232217387     1.5067100564     2.8923944343
C     -0.7360035496     -0.9995819004     4.0540752134
C     -0.7648649509     0.3846242564     3.6997579163
C     -0.0061807175     -2.7919845283     2.6976786861
C     -1.1862278722     -1.9732792682     3.1252192134
C     0.1107834191     -3.1014519949     1.3401003799
C     2.2485187164     -1.8041001979     1.2205486619
C     1.2770490835     -2.6569229553     0.6110943306
C     2.7635683593     0.6001045556     1.128444807
C     2.6962717198     -0.6522984243     0.4153354646
C     2.5034490662     1.8033381142     0.4362316759
C     0.4910684168     2.172687118     1.8477232926
C     1.2653113345     2.5919437713     0.7785962185
C     -1.4895491498     0.8125569444     2.5337608411
C     -0.9320733616     1.8569462478     1.6282830812
C     -2.0993408339     -1.5826912362     2.1572523864
C     -2.3231607658     -0.1706695614     1.9247649709
C     -1.0159261625     -2.9569447034     0.4423293657
C     -2.1298996211     -2.2171880315     0.8528646788
C     0.8942426642     -2.489256327     -0.7727025612
C     -0.5145887907     -2.7391679993     -0.8977320327
C     2.4754572535     -0.602504375     -1.0347246376
C     1.5470993292     -1.5692973529     -1.636075067
C     2.6388910743     1.85081371     -0.9285377941
C     2.6120733239     0.6493665136     -1.7121867076
C     0.6920772902     3.0339497511     -0.4448711811
C     1.6333114362     2.7511527455     -1.4832112895
C     -1.4894486426     2.1066048669     0.3315541297
C     -0.7083606342     2.8340794554     -0.6957738361
C     -2.7592608186     -0.0152471548     0.5727285895
C     -2.7047516687     -1.2910942612     -0.0871992739
C     -2.5326325545     1.1748562988     -0.1677897595
C     -1.2831848503     -2.1186859353     -1.9098123582
C     -2.4747136277     -1.3703944405     -1.4863970556
C     0.8547069233     -1.2527999441     -2.8403548355
C     -0.5447570611     -1.6013385325     -3.0197547016
C     1.8678221835     0.9716777311     -2.9227076342
C     1.2534353502     2.3136009102     -2.7506637116
C     1.0926280069     -0.0006556206     -3.5480360196
C     -1.071069902     2.7645434353     -2.0752334471
C     -0.0902995767     2.5366976208     -3.1267999698
C     -2.8222800535     1.0744700739     -1.5420315716
C     -2.8438372764     -0.2107150743     -2.2162066206
C     -2.2509694356     2.0184594887     -2.4882952901
C     -1.1431642711     -0.6501793503     -3.8953650358
C     -0.1193406874     0.3775929474     -4.2264443179
C     -0.6992715914     1.6415471915     -4.0907457368
C     -2.3171061663     0.0198569257     -3.5440151892
C     -2.1049701406     1.4509766074     -3.7535155285


