56

 C     1.1451982703     -0.0100403072     4.5288485104
C     0.4440602386     -1.1439809564     3.9964722674
C     1.3110169892     -1.9749506437     3.2567103107
C     2.4322831727     -0.0043025981     3.8536096812
C     2.5757560387     -1.2226910459     3.120026968
C     2.5686525589     1.219210469     3.1272367435
C     0.4374660998     1.1229258636     4.0031654507
C     1.2995612707     1.963279143     3.2683379909
C     -0.7852194662     -0.7306763323     3.3356175755
C     -0.789399591     0.7063862212     3.3398604996
C     -1.2825762402     -1.419526914     2.1951422187
C     0.935557763     -2.4574823897     1.9803551824
C     -0.4037212005     -2.328604855     1.4807684543
C     2.9317797705     -1.2314936834     1.757902599
C     2.0037202052     -2.1343018308     1.0620633139
C     2.924595866     1.238127282     1.7651941171
C     3.2380548992     0.006258079     1.0706666589
C     0.9212791372     2.451146928     1.9948481515
C     1.9912879823     2.1396141541     1.074682142
C     -1.2907748669     1.3990539574     2.203464013
C     -0.4172359778     2.3174324415     1.4944861466
C     -2.3175853367     -0.7399518947     1.4510735896
C     -2.3218257433     0.7178747906     1.4553777088
C     -2.8201741112     -1.4062799553     0.3075250515
C     -0.6337123296     -2.555586684     0.0616645772
C     -1.9212360649     -2.2897964117     -0.4301277304
C     1.8072807207     -2.0974992172     -0.333134153
C     0.5105138833     -2.5189989687     -0.8854326953
C     3.0748370539     0.009903344     -0.3247940126
C     2.5729438387     -1.132910072     -1.0530196811
C     1.7950419481     2.10990865     -0.3207116356
C     2.5662913615     1.1540576924     -1.0462673171
C     -0.6485681187     2.551448281     0.0767433098
C     0.495835306     2.5271107448     -0.8705339644
C     -2.8283022931     1.3880087409     0.3157753012
C     -1.9345321024     2.2810804332     -0.4166320239
C     -3.5913036842     -0.7048426235     -0.6507813039
C     -3.595354591     0.6877681626     -0.6466695712
C     -2.1856390968     -2.1004128192     -1.8581781365
C     -3.2104071417     -1.1453430875     -2.0055140157
C     0.2673857823     -2.28946138     -2.2489454633
C     -1.0935345251     -2.0958737172     -2.7690007442
C     2.1632064463     -0.7164543576     -2.3645153102
C     2.1589609501     0.7429768128     -2.360206236
C     1.1437253657     -1.4026398618     -3.0183013397
C     0.2540233463     2.3042184891     -2.2353825139
C     1.1354942228     1.427068419     -3.0099465894
C     -2.1978535164     2.0985977554     -1.8457803972
C     -3.2170503932     1.1384691323     -1.9987709478
C     -3.0385843254     -0.0003979111     -2.8588992065
C     -1.105756643     2.1057907437     -2.7565952276
C     -1.0735719421     -1.1385119461     -3.8064295409
C     0.3158684508     -0.6820873314     -3.9465518315
C     0.3118270933     0.7072055826     -3.9424496966
C     -1.9493441154     0.005473566     -3.7743886235
C     -1.0802425953     1.1547038763     -3.7996586346


