56

 C     1.4323622922     -0.0139311943     3.8837225239
C     0.6497290171     -1.185754773     3.5759162005
C     1.3048932309     -1.8862536819     2.5185376669
C     2.5706397758     0.0298204732     3.0945333041
C     2.5083039332     -1.099467415     2.1711071134
C     2.6776354441     1.3724504561     2.5406520059
C     0.6251125061     1.1529557514     3.5705277865
C     1.369566097     2.023403198     2.7160054978
C     -0.6884686639     -0.7643050055     3.3762942359
C     -0.674640114     0.7229701175     3.234804898
C     -1.4699775293     -1.5030503536     2.5134624478
C     0.5472420315     -2.5170430088     1.5017210522
C     -0.8830625429     -2.4953950553     1.6666062898
C     1.0607712306     -2.5439527516     0.1258902458
C     2.9001242812     -0.9470770734     0.8249000564
C     2.1890685805     -1.7050311027     -0.2386770573
C     3.346269773     1.5081474695     1.3581855233
C     3.5671420395     0.3110064279     0.4908860013
C     2.9349935897     2.5521309897     0.4636700593
C     0.7277855995     2.5895118406     1.5699842863
C     1.5877609607     2.9723605295     0.4751829007
C     -1.3682295563     1.2917475217     2.1259522991
C     -0.6558398668     2.2306719093     1.2662575221
C     -2.5632089751     -0.879285105     1.7873456253
C     -2.5158543058     0.537343689     1.5860767132
C     -1.8113577413     -2.6926155954     0.568040837
C     -2.9304437532     -1.7512776428     0.7120389329
C     0.1321368409     -2.9629464251     -0.894531557
C     -1.3311686752     -3.0298816935     -0.6721146491
C     0.2863312028     -2.52816287     -2.2137865676
C     2.2290964527     -1.1701323634     -1.5972152163
C     1.2076934273     -1.5105693252     -2.5252902194
C     3.5999138084     0.7778029304     -0.8309800464
C     3.3574468256     2.2087513504     -0.8860680608
C     2.8011620322     0.1161118977     -1.8325420938
C     1.1310022627     2.8643612579     -0.919408421
C     2.2548060553     2.3565474539     -1.7128762314
C     2.0059187859     1.1304437265     -2.4539845851
C     -1.1480243444     2.3949339176     -0.1090418698
C     -0.1681564969     2.5043033282     -1.2312943016
C     -3.1544989631     1.0257041972     0.4218820474
C     -2.4352716559     1.9681083646     -0.4314336403
C     -3.5908986442     -1.2501198614     -0.4133220446
C     -3.8811214532     0.1477951424     -0.4456797374
C     -2.0202699217     -2.5372361729     -1.8767132633
C     -1.019727572     -2.2447916294     -2.8236017275
C     -3.1379382865     -1.6616610143     -1.7648695326
C     0.4370410077     -0.4857964684     -3.2273489313
C     0.7068508671     0.8641028512     -2.9332044448
C     -0.4094069099     1.7134784008     -2.469422893
C     -0.9292674642     -0.957982152     -3.4195598619
C     -2.7720987024     1.6223632088     -1.8058795184
C     -3.7149402041     0.599518515     -1.8045047725
C     -3.1774279091     -0.5010826221     -2.5913847153
C     -1.7033304699     1.287633434     -2.7404421133
C     -1.9941692496     -0.0516779841     -3.275006


