56

 C     1.6673995627     -0.111818468     4.4956418196
C     0.8883900322     -1.268995314     4.6690666251
C     1.4343542017     -2.336144755     3.9351661828
C     2.668800145     -0.4033481654     3.4719469097
C     2.5225465543     -1.8002660987     3.1200308239
C     2.5426224399     0.5652649845     2.435956696
C     0.7952399122     0.8994504923     3.9216747703
C     1.4155014831     1.4711726125     2.8004997096
C     -0.4607911637     -0.9769671946     4.0699568352
C     -0.5607351531     0.4022409821     3.7241829419
C     0.4110102801     -2.7687506944     2.9976616317
C     -0.8106818184     -1.9837190845     3.1232389569
C     2.2609796957     -2.1244541805     1.7585174495
C     0.9623645808     -2.8562002571     1.7105472586
C     2.599827672     0.211788967     1.0555179312
C     2.4536917064     -1.1838894798     0.7039696317
C     2.176988725     1.2050275319     0.077179727
C     0.6352522643     2.0627097124     1.800215253
C     1.3041619975     2.2651465861     0.5270109208
C     -1.295042189     0.7859186045     2.5654948392
C     -0.8060015492     1.8995865964     1.7754471295
C     -1.5478137243     -1.6277904606     1.9575667311
C     -2.0127892057     -0.2474357966     1.8185860903
C     0.1319115574     -2.7447851525     0.5891831609
C     -1.2468712759     -2.3119469422     0.7145345036
C     1.8939950113     -1.4984659314     -0.6037782166
C     0.8103051094     -2.4526024517     -0.6613553985
C     2.1686864653     0.8777506839     -1.3360381612
C     2.0190046867     -0.5522653449     -1.6962402626
C     1.6947059701     1.8646857255     -2.2459817805
C     0.6535478618     3.0756459263     -0.4045319945
C     1.0540723417     3.0429218113     -1.7436538304
C     -1.5087572825     2.3051437557     0.5809015822
C     -0.844061238     3.1593156029     -0.3584135688
C     -2.604008882     0.1215987351     0.5992289352
C     -2.5367091177     1.4637107858     0.0668218875
C     -1.9557148738     -1.9643179332     -0.4946381614
C     -2.773517013     -0.7981302144     -0.5029965436
C     0.0607899545     -2.5872911991     -1.8310081344
C     -1.4248457981     -2.3892397752     -1.7561174802
C     1.4070842229     -0.8834893953     -2.9382255168
C     0.525282749     -2.0092493028     -3.0162774392
C     0.9438086545     1.4813731372     -3.4588086717
C     0.8056966138     0.161720757     -3.7912215544
C     -0.1309804398     3.2908146252     -2.5507450108
C     -1.2989867278     3.2595916868     -1.6804911393
C     -0.2474080025     2.3542142291     -3.5504400667
C     -2.8224854202     1.3980261595     -1.3473736846
C     -2.9712324516     -0.0227706731     -1.7052897067
C     -2.2160272274     2.2890010662     -2.2342596385
C     -1.5949707936     1.7547737182     -3.4659093333
C     -1.8251239826     -1.7670740476     -2.9467599009
C     -0.6442607817     -1.613491037     -3.7861700866
C     -0.5267722126     -0.3151854618     -4.2228955199
C     -2.507188154     -0.4926311964     -2.9350066235
C     -1.734245963     0.4241205122     -3.8011194882


