56

 C     1.4406832075     -0.3781281849     4.5603157642
C     0.6158526086     -1.4424024275     4.2439157172
C     1.1888711511     -2.2107003341     3.1278990366
C     2.5452114932     -0.4016819615     3.6283166402
C     2.364079125     -1.5396090297     2.6840551795
C     2.650241229     0.8856948414     3.0790253654
C     0.6515854424     0.8549409817     4.2757009544
C     1.4302918259     1.6710334518     3.4831691209
C     -0.6720604354     -0.9807177495     3.8009859458
C     -0.6647224307     0.4715600863     3.76743308
C     0.1536023433     -2.4735534357     2.203354943
C     -1.0447131812     -1.7210438392     2.6372155377
C     0.4188249377     -2.5263464066     0.8277027241
C     2.5683179667     -1.3663208574     1.2820674203
C     1.7051302943     -2.0732866556     0.3404681497
C     2.8253181798     1.0839909779     1.7104180551
C     3.031862914     -0.0408300355     0.8155802621
C     0.9189515279     2.2705966628     2.2985876865
C     1.9029773718     2.133883793     1.2513267904
C     -1.2110991716     1.1017246551     2.6250205463
C     -0.4425840486     2.1318093687     1.9083540151
C     -1.8716023194     -1.1453839948     1.6747453638
C     -2.1071693471     0.2931409524     1.7806232416
C     -0.7491441957     -2.480814953     -0.0548433372
C     -1.9302902716     -1.7594965671     0.3481391299
C     -0.5061355494     -2.6638866115     -1.4366588026
C     1.836826772     -1.8302586791     -1.1006324354
C     0.8123483215     -2.2693083189     -1.9819505528
C     2.9591298096     0.2737442252     -0.5283406595
C     2.617573515     -0.7066645166     -1.5372587881
C     1.5973304785     2.3077597992     -0.0991678583
C     2.4344678772     1.5712009292     -1.0041146089
C     -0.7805423822     2.4745681069     0.5403938296
C     0.2318145842     2.6285542149     -0.5028739052
C     -2.6691763903     0.9014253178     0.6791136559
C     -2.1049801751     2.1433514418     0.1294271577
C     -2.8260106732     -1.2037294282     -0.6582469036
C     -3.2637832308     0.1593266385     -0.4218220021
C     -1.5006276523     -2.3756064522     -2.3675563076
C     -2.666840196     -1.616890202     -2.027118784
C     0.5539334947     -1.6364653946     -3.2530585951
C     -0.8491977348     -1.7657103711     -3.5371607334
C     2.2423916611     0.0020304713     -2.7022486675
C     2.0464818668     1.3985622777     -2.3171665627
C     1.1656562096     -0.3787731986     -3.519893227
C     -0.148238571     2.47479358     -1.9126679328
C     0.7728786481     1.8222549563     -2.8109666069
C     0.316057018     0.8089071843     -3.7576497395
C     -2.5102011871     2.2202277977     -1.19366961
C     -3.366212727     1.0715861428     -1.4981557052
C     -1.5525540739     2.3522055968     -2.2606975496
C     -2.8278745313     -0.660260703     -3.1094200456
C     -1.6235752708     -0.7031888141     -3.9577978247
C     -1.0567314465     0.6490829347     -3.9955884958
C     -3.0788334315     0.6756327478     -2.8196110698
C     -1.97379124     1.5174690081     -3.3370180017


