56

 C     -3.8468171764     -0.0950615276     -1.6862369852
C     -4.0557077824     -0.5694112664     -0.3313767855
C     -3.7514303805     0.4910122084     0.5661520468
C     -3.3497107464     1.2557855982     -1.6079896556
C     -3.4543016391     1.697063072     -0.2578210474
C     -2.0956354516     1.3500179735     -2.283513532
C     -2.8516584553     -0.8836380473     -2.2563598404
C     -1.7413865646     -0.0246898706     -2.6608868753
C     -3.3939287206     -1.8276487476     -0.182449647
C     -2.5899487776     -2.0270965458     -1.3939916516
C     -2.7973056716     -2.1283956498     1.0577025851
C     -2.9312215873     0.2400062929     1.7442404372
C     -2.5018136181     -1.0736456977     2.0063847094
C     -2.0570627241     1.2956013601     2.2166601562
C     -2.5245537589     2.6226254923     0.1934251803
C     -2.0258176976     2.5171157608     1.5652106402
C     -1.0881645479     2.2163571524     -1.797408212
C     -1.4048947253     2.9988969488     -0.6320873805
C     0.3141139745     1.8602225416     -2.0734006229
C     -0.4233680669     -0.477992867     -2.5868829144
C     0.6715880319     0.5143258488     -2.4855185493
C     -1.2927929909     -2.5555122141     -1.3432579824
C     -0.2036531382     -1.8656600148     -2.0928834494
C     -1.6763049236     -2.9818487276     1.0479357116
C     -0.9310289013     -3.2238882619     -0.109327381
C     -1.1412050836     -1.3374779902     2.5757115696
C     -0.7212614967     -2.564909766     2.0930845948
C     -0.6614172077     1.0189215789     2.713188019
C     -0.1548230036     -0.2874832144     2.7628436283
C     -0.671201953     3.0082148536     1.5968987058
C     -0.3225995914     3.3614000886     0.2802574597
C     0.1718888599     2.1145623374     2.337000743
C     1.3238592842     2.6362289924     -1.4088414474
C     1.0009873999     3.2149263086     -0.0920124476
C     2.6380055389     2.195125855     -1.3474431306
C     2.0526056401     0.0371174786     -2.3450661005
C     3.063615026     0.9402275882     -1.8344366776
C     1.1054556647     -2.2417264836     -1.8360626237
C     2.2491162877     -1.3698065031     -2.0761157984
C     0.4619639549     -3.312164163     0.2916773128
C     0.6002425091     -2.7826020307     1.6472703517
C     1.4372887705     -3.0676767536     -0.6479069594
C     1.2791431625     -0.5322281509     2.4531886868
C     1.6455011205     -1.861032898     1.9412128409
C     1.5348107504     1.9316714416     1.9623720944
C     1.9782931003     2.7560438682     0.8563644166
C     3.0903360841     2.3367961142     0.0705505293
C     2.1478262103     0.6049099242     2.1415084037
C     4.0389878102     0.4689321899     -0.8488647879
C     3.856774076     1.2697445905     0.4017534811
C     3.4088623012     0.3522566722     1.4496100948
C     3.2794431107     -1.7808143551     -1.1724592938
C     2.6913260282     -2.6448510427     -0.1844052231
C     2.8204675744     -2.0116783174     1.1172984865
C     4.0856884357     -0.8401992134     -0.4848772648
C     3.7128256753     -0.9369698118     0.9703813805


