56

 C     1.5776067701     -0.1828220273     4.229884323
C     0.7714438667     -1.2854138824     4.1644364121
C     1.2733313616     -2.2707139148     3.2274109224
C     2.6154572335     -0.3654344091     3.198439122
C     2.3566248842     -1.6396778028     2.5133674991
C     2.542384311     0.7479876953     2.377554941
C     0.7453785155     0.9500464021     3.8366951735
C     1.4022476674     1.6185925801     2.8247488988
C     -0.6180585305     -0.9314310596     3.793741545
C     -0.6430719875     0.471088665     3.5329917992
C     0.1489966199     -2.7177978636     2.4965674448
C     -1.0160738244     -1.823938716     2.7902569638
C     0.3310905303     -3.1053147743     1.1866018859
C     2.3987857756     -1.7295148395     1.0657597151
C     1.5055549281     -2.6602257446     0.4659582523
C     2.8082661883     0.7060794818     0.9628526823
C     2.7362888179     -0.5511981105     0.2481749286
C     2.5188768955     1.9155376704     0.2920220235
C     0.6822208018     2.3966494198     1.8700873821
C     1.4176981577     2.8209703784     0.7605261801
C     -1.3252572446     0.9594698052     2.3977682959
C     -0.7678483803     2.1671326295     1.733855514
C     -1.8463836296     -1.388716679     1.7136657926
C     -2.1038358299     0.030399594     1.5734216969
C     -0.7672236456     -3.0840036363     0.2662291038
C     -1.8930870236     -2.2396520229     0.5219979258
C     1.1484788866     -2.6204386625     -0.9352731299
C     -0.2130010092     -3.1106800365     -1.0631676371
C     2.4205776102     -0.5219241797     -1.1872882841
C     1.6227742853     -1.5960952632     -1.7878284392
C     2.4968328587     1.9449242568     -1.0979547028
C     2.3829978006     0.7484662036     -1.8438757014
C     0.7747119093     3.3575010573     -0.3955665882
C     1.4784058262     2.8977287258     -1.551787254
C     -1.3843045954     2.654487906     0.591866808
C     -0.6439666672     3.3666417046     -0.4425851199
C     -2.7101446876     0.5219988402     0.3319541375
C     -2.4617373429     1.886361153     -0.062855924
C     -2.62861501     -1.7881248869     -0.6159243848
C     -3.0723467236     -0.3869208301     -0.6958884291
C     -1.0041981794     -2.778467524     -2.156582696
C     -2.3187144478     -2.2460385155     -1.909779782
C     0.8115042517     -1.3209873451     -2.9693980894
C     -0.4117951172     -1.9785675664     -3.1810078697
C     1.4268323002     1.0470834508     -2.9269527836
C     0.8263792724     2.3712443482     -2.6730391253
C     0.6618511793     0.0513998128     -3.4673209877
C     -1.2778759809     3.0831592784     -1.6743710034
C     -2.4523009298     2.2365306998     -1.4193195718
C     -0.5906049094     2.5251933419     -2.7785956086
C     -3.0396535764     -0.0052503062     -2.0976243781
C     -2.5358668499     -1.1364906373     -2.8322544073
C     -1.408795716     -0.9920430667     -3.6357576475
C     -0.7646362632     0.277386633     -3.7890312688
C     -2.582346563     1.2740690666     -2.4547834213
C     -1.401854841     1.4297534826     -3.3230231243


