56

 C     1.5683931101     -0.2658572343     4.228151836
C     0.7328634958     -1.3833204224     4.2148176373
C     1.1873034452     -2.3573749328     3.2473648911
C     2.5288931695     -0.464540901     3.1965974563
C     2.2677090155     -1.7445278266     2.5161637494
C     2.5687404709     0.6878337941     2.3762542827
C     0.7557398852     0.8911015472     3.790957108
C     1.4229138977     1.560529324     2.7586211879
C     -0.6032739874     -0.9832878559     3.8168550943
C     -0.5750289012     0.4467832656     3.4947338702
C     0.0321280191     -2.7777221039     2.5135105805
C     -1.1145526128     -1.8951530757     2.8771312493
C     0.1695885771     -3.0795294118     1.1792209614
C     2.2998698048     -1.7979593278     1.0768625712
C     1.344821712     -2.6437462297     0.4395949121
C     2.8971061723     0.6191003815     1.0181403053
C     2.7481418406     -0.642977195     0.2797914471
C     2.667594086     1.8393431073     0.3207798407
C     0.682986043     2.2459786889     1.7420546269
C     1.4611853908     2.6323322443     0.6298074191
C     -1.2948407886     0.9176240737     2.3533426833
C     -0.7200925283     1.9837424056     1.5317445714
C     -2.0092718331     -1.4521641652     1.8738709611
C     -2.2306787509     -0.0093957697     1.7350900018
C     -0.9673101144     -2.9954575642     0.2919918387
C     -2.1464448236     -2.2699744095     0.667444647
C     0.9394272939     -2.468248531     -0.9221858867
C     -0.4598711226     -2.8648509372     -1.035618419
C     2.4714665581     -0.5632500371     -1.1416426709
C     1.4672440827     -1.4541244077     -1.7530593886
C     2.832986457     1.8921518111     -1.0400698067
C     2.724797984     0.6958639797     -1.822644166
C     0.9155257737     3.1602363294     -0.579308876
C     1.8900262114     2.8878762977     -1.5990366965
C     -1.305490145     2.3372046715     0.2282209417
C     -0.4946353669     2.9771252445     -0.8448470231
C     -2.916087531     0.4457649017     0.5877224469
C     -2.4727827639     1.6479114632     -0.1474220271
C     -2.974074693     -1.8006364897     -0.3899426801
C     -3.4977363392     -0.4553469824     -0.3235272875
C     -1.2731444496     -2.3754915928     -2.0596708988
C     -2.6095046241     -2.0217363972     -1.7518528308
C     0.632114526     -0.9913472943     -2.8920050729
C     -0.7128166653     -1.4281172889     -3.0115554015
C     2.0151129863     1.056957021     -3.00455126
C     1.5169481118     2.4601809923     -2.8464192862
C     0.9337472003     0.3015052576     -3.4854115039
C     -0.8642546861     2.7581605142     -2.2204820521
C     0.1590590861     2.487960583     -3.2003903992
C     -0.1559472267     1.217759504     -3.8050261952
C     -2.8340091413     1.44597489     -1.5426278825
C     -3.4319205973     0.1357976076     -1.6389896399
C     -2.912144685     -0.8217279828     -2.5272325643
C     -1.7953591935     -0.4810068274     -3.3365576812
C     -1.9760628121     1.8742869215     -2.5443489725
C     -1.4870980438     0.881786362     -3.5204125694


