56

 C     1.6761916649     -0.2299202012     4.1944982137
C     0.859320164     -1.3245971882     4.1888076416
C     1.3027175821     -2.2925770799     3.213315061
C     2.6683901829     -0.4094928111     3.1239324866
C     2.3923383078     -1.6719164833     2.4587907252
C     2.5823209943     0.7274426213     2.323398134
C     0.8582311404     0.9442142854     3.8758626758
C     1.4737349018     1.6085040746     2.8313720664
C     -0.5301840061     -0.9018988898     3.8506280591
C     -0.5413369848     0.5155844885     3.6677113449
C     0.1489155052     -2.648974766     2.4841221811
C     -0.9884933281     -1.7526521032     2.8295779474
C     0.273514383     -3.0084728531     1.1556445271
C     2.4124491322     -1.7566166149     1.0209774623
C     1.4761259733     -2.6573779431     0.4217564017
C     2.7974432828     0.6872197181     0.9112732965
C     2.7449869562     -0.5758624541     0.20260145
C     2.4451974585     1.8937801457     0.2348842667
C     0.7038371325     2.3970002109     1.9102269587
C     1.3626575611     2.7783354417     0.7318470891
C     -1.2914996457     1.0595880276     2.6007021529
C     -0.7492195541     2.2438775819     1.9009818926
C     -1.8493701753     -1.2627371333     1.7974644586
C     -2.1456509142     0.1538573206     1.817024698
C     -0.8279138142     -2.8793853602     0.2576074129
C     -1.903545523     -1.9844359729     0.5161659746
C     1.1396850114     -2.6283050127     -0.9649993306
C     -0.263238923     -2.9567967534     -1.0746314824
C     2.45307244     -0.5657875234     -1.2455271413
C     1.694449483     -1.6658803575     -1.8637407538
C     2.404848668     1.8994808283     -1.1507039115
C     2.3731916392     0.6961813808     -1.8969095461
C     0.6323012152     3.2337821589     -0.4217040105
C     1.3084162719     2.7540055256     -1.6024753643
C     -1.4459767354     2.7199489218     0.773687323
C     -0.7580177027     3.2126642874     -0.4181966245
C     -2.8198055368     0.7002348578     0.6887626453
C     -2.6062714181     2.0363028704     0.3179263125
C     -2.5901084867     -1.393181888     -0.6435752505
C     -3.105917719     -0.0863162525     -0.5202265022
C     -0.999734996     -2.6150156104     -2.1832845563
C     -2.2477649396     -1.8395241794     -1.990409993
C     0.9724259926     -1.4510613176     -3.0833157324
C     -0.3064800249     -2.0689165324     -3.2930992108
C     1.4260244906     0.942987373     -2.9960619074
C     0.6704587369     2.1859084297     -2.6927142514
C     0.8131495612     -0.0975298614     -3.6263227231
C     -1.4764573673     2.7460714411     -1.6095595388
C     -2.6295327432     2.0867293364     -1.1309004317
C     -3.0629922039     0.8334894316     -1.6505479267
C     -0.7873703099     2.1928605232     -2.764420456
C     -2.3724390647     -0.9869126316     -3.1070628836
C     -1.2132428378     -1.1611826067     -3.9644406783
C     -0.5834877831     0.0730559473     -4.0575640518
C     -2.5599252484     0.42690792     -2.888593761
C     -1.410417837     1.1233132415     -3.4605628294


