56

 C     1.4540776159     0.0488686775     4.0551724356
C     0.6723161069     -1.1580568242     3.816536045
C     1.4455759804     -2.0637143109     3.0866821077
C     2.6274752213     -0.0365111846     3.1838120812
C     2.6654004798     -1.3249359338     2.6308111684
C     2.6551143402     1.0704473315     2.2688249696
C     0.6912105302     1.0721782885     3.495775109
C     1.4406674686     1.82711731     2.5195372834
C     -0.6421024224     -0.8196588343     3.2956989562
C     -0.6285864441     0.609820426     3.0878424419
C     -1.2928951847     -1.6479104136     2.3439100037
C     0.9029214652     -2.7428565485     1.9845699709
C     -0.5037402647     -2.7162910977     1.7338252164
C     2.8064147236     -1.5477081781     1.2410258163
C     1.7969000452     -2.5025361106     0.8497488333
C     3.0733609476     0.9028287729     0.9033098057
C     3.1326979719     -0.4560696026     0.3415340794
C     2.7084493293     1.9550573219     0.034237744
C     0.7699429313     2.5193065357     1.5024980245
C     1.6000822585     2.8646653219     0.3810291652
C     -1.314219851     1.216991851     2.014504937
C     -0.6618212267     2.3006436713     1.2670483465
C     -2.3858944804     -1.0366512272     1.5803083288
C     -2.3858356053     0.426050797     1.4126670131
C     -2.9763101193     -1.8406480784     0.5497232374
C     -0.9037608581     -3.161314426     0.4385105355
C     -2.1817581138     -2.9011711697     -0.0107724377
C     1.3299254936     -2.5737230853     -0.4965083627
C     0.0110293982     -3.0399579888     -0.7163318002
C     2.7871875926     -0.6209723343     -1.0253824115
C     1.8760591174     -1.6698908644     -1.4463117289
C     2.6631150287     1.7995439493     -1.3969070526
C     2.6066636213     0.49442957     -1.9191936174
C     1.0584616733     3.400421488     -0.7822688687
C     1.756533799     2.7898360051     -1.9169534134
C     -1.2075871035     2.7110579481     -0.015750768
C     -0.3497431338     3.3089992247     -1.0290877719
C     -3.0206772431     0.9891193074     0.2718126661
C     -2.3755499961     2.0363011434     -0.4787812745
C     -3.6465328636     -1.2336109139     -0.5610975667
C     -3.6649348296     0.127561403     -0.6779219731
C     -2.1259409299     -2.7002276336     -1.478420702
C     -0.7423323087     -2.6417554886     -1.8670245301
C     -3.0232020953     -1.7354299303     -1.8351774307
C     1.0843859708     -1.1861790965     -2.5471451306
C     1.5666202452     0.1393021213     -2.8828815684
C     -0.2829404408     -1.5691017908     -2.7123830308
C     0.8090570254     2.4614788407     -2.8658508737
C     -0.4963848743     2.9213106862     -2.4096725969
C     0.657860625     1.0970575033     -3.3361812707
C     -2.5364854966     1.7302485396     -1.9137807699
C     -3.2100922409     0.5230154234     -2.0286270053
C     -2.6295848649     -0.6209745742     -2.6587846054
C     -1.2616219895     -0.5296419494     -3.1436601331
C     -1.4362911538     1.9489287726     -2.7723056461
C     -0.7626808611     0.7849113893     -3.3657919806


