56

 C     1.5077299869     -0.025217296     3.8707630122
C     0.677702799     -1.1359934053     3.6824022521
C     1.1913285292     -2.0057407237     2.6201256472
C     2.4733267725     -0.0621236727     2.8202038436
C     2.3134326879     -1.3140744548     2.0623596102
C     2.3661547931     1.1145705117     2.0690114592
C     0.6472847373     1.1322222974     3.6345312384
C     1.1834501097     1.8685660937     2.5747930761
C     -0.7098148534     -0.754722267     3.7042408178
C     -0.7253230572     0.7124549783     3.5264297527
C     -1.6164404484     -1.5212742426     2.988139361
C     0.264041032     -2.6759655307     1.7650295498
C     -1.1422372909     -2.5149095238     1.9839939243
C     0.6757930918     -2.9097811191     0.4231298713
C     2.6022032246     -1.362930187     0.6695346077
C     1.9001422102     -2.3464804927     -0.0824503221
C     2.7311301471     1.1533897252     0.6847192814
C     3.0084202554     -0.1212283386     -0.0285550779
C     2.2510047026     2.2566527285     -0.0280419726
C     0.3487321108     2.5407754452     1.6306786271
C     1.0260868786     2.9529011525     0.4493899946
C     -1.6168317132     1.312626609     2.5767170387
C     -1.0783298603     2.2599259221     1.5872950959
C     -2.7799979993     -0.8997976017     2.4875118345
C     -2.758434508     0.4996048233     2.2041395274
C     -2.0462254877     -2.4784731557     0.8791008584
C     -3.0997714124     -1.5548092184     1.2239135271
C     -0.2588366616     -2.9649089146     -0.6830466885
C     -1.6085268985     -2.5730210125     -0.4940648924
C     1.8080641114     -2.2701979504     -1.5221714351
C     0.4584176919     -2.6603307296     -1.8984895912
C     2.9916524874     -0.1100744983     -1.429860806
C     2.4659545563     -1.2441851077     -2.1970112174
C     2.2348040489     2.2627280288     -1.4732901271
C     2.6549893101     1.1053703665     -2.1878735198
C     0.3096020627     3.3011230439     -0.6935516163
C     1.0601967603     2.9245284959     -1.8877203938
C     -1.7444101973     2.3906869949     0.2747014359
C     -1.0275679232     2.879985244     -0.8421718449
C     -3.401510608     0.6824093124     0.9219782511
C     -3.582666058     -0.6349183757     0.314084952
C     -2.8264407807     1.4946288113     -0.042424052
C     -2.20800453     -1.6616292093     -1.5053586861
C     -3.0894542586     -0.6104169971     -1.024369105
C     -2.7893784695     0.7480472806     -1.3232215428
C     -0.1862934764     -1.9789226572     -2.9351089303
C     -1.4686693708     -1.3598158536     -2.6622621408
C     1.866191261     -0.7190630699     -3.393823198
C     1.9622076893     0.7495311986     -3.364480645
C     0.5745121001     -1.0697294636     -3.7449779758
C     0.1774190806     2.3510198876     -2.838427267
C     -1.1181621906     2.2613202805     -2.2004947408
C     -1.9093258636     1.1024600711     -2.3761542004
C     -1.4011709008     0.0180218353     -3.1995673232
C     0.6632395905     1.2915001811     -3.6648214201
C     -0.2013899909     0.1736837597     -3.9051277052


