56

 C     1.543969637     -0.0838357393     4.2497694089
C     0.7094934262     -1.2692962858     4.1957344305
C     1.4381064477     -2.2547256675     3.4836733473
C     2.6281775036     -0.2786850597     3.2893193478
C     2.6668965221     -1.6021769572     2.8932694331
C     2.542621722     0.7646625835     2.2680861365
C     0.7925574652     1.0005541831     3.7921533769
C     1.4148872717     1.5925784197     2.6071737271
C     -0.596937986     -0.8901574513     3.6982035689
C     -0.5749562706     0.5658897491     3.6212640432
C     -1.2258930996     -1.5948608352     2.5950013743
C     0.8359592996     -2.9579245036     2.456093085
C     -0.4908195322     -2.6710217054     1.9950750003
C     2.7266799394     -1.9279748443     1.4965129353
C     1.6991260613     -2.8874600986     1.2595843723
C     2.7662476002     0.4810340571     0.9022732379
C     2.8808439028     -0.9188133644     0.4920103545
C     2.2597889503     1.4522217321     -0.0715694601
C     0.6257821047     2.2376716502     1.599641373
C     1.1279783407     2.3057123334     0.2331038582
C     -1.3436258609     1.2246223409     2.6909759213
C     -0.7801590571     2.2332382133     1.7914914506
C     -2.1513640244     -0.8748475541     1.7113771794
C     -2.3205601532     0.5202954426     1.9182731242
C     -2.406855496     -1.3388799029     0.3361249692
C     -0.4629026746     -2.783316408     0.5390469534
C     0.9138216207     -2.893117544     0.10564302
C     -1.4099222922     -2.1892805923     -0.3053473281
C     2.430158276     -1.2507673277     -0.8502571302
C     1.3459886317     -2.1927851522     -1.0527411984
C     2.5402915646     1.1675163992     -1.4223399775
C     2.6040948706     -0.2585935121     -1.8371710618
C     1.8988218607     1.8767257175     -2.448878459
C     0.2390015361     2.7343036522     -0.8541743997
C     0.687380271     2.5668749954     -2.1994158115
C     -1.6670159466     2.3893793454     0.680155253
C     -2.7166213289     1.3978118142     0.8419710862
C     -1.2151591     2.7438848359     -0.6199209795
C     -3.2106952534     -0.5462573118     -0.5227316041
C     -3.3744947214     0.903007578     -0.2519343163
C     -3.0942350144     -0.6824630622     -1.9259020877
C     -1.0489245279     -2.0027611354     -1.7270025896
C     0.3752289791     -1.9673184971     -2.103038305
C     -1.9736327307     -1.3139907167     -2.5458158177
C     1.9827744818     -0.3850956122     -3.0885444741
C     1.6900213349     0.9566546126     -3.574786025
C     0.7743537454     -1.1516474994     -3.2007204069
C     -0.2456753194     2.1478635     -3.278540449
C     -1.5226363165     -0.3994709356     -3.6152904973
C     0.4067445618     1.0500157473     -4.0335010045
C     -0.1904519488     -0.3079152742     -3.9099545494
C     -2.114260515     2.4345185067     -1.7126740794
C     -3.2346007267     1.6032684547     -1.4852908411
C     -3.2793374756     0.619288386     -2.5567863447
C     -1.586283835     2.0580182545     -3.0448800205
C     -2.3097767217     0.8478280756     -3.5037921705


