56

 C     1.2516097784     0.0116368372     3.9766089197
C     2.4279553965     -0.2775781037     3.3270010955
C     2.2788859665     -1.592522529     2.6086110052
C     0.3858457993     -1.1828778905     3.8127507848
C     0.9661961516     -2.0565435294     2.7971907226
C     -0.8956192765     -0.7614650568     3.6740005776
C     0.4536789867     1.1570519889     3.5671465484
C     -0.904065734     0.7172863748     3.6318699985
C     0.8537058652     1.9471026286     2.4097040159
C     2.9818032229     0.6223255695     2.4093310034
C     2.1772045971     1.6926400655     1.899085917
C     2.8765764306     -1.4832242518     1.3251913107
C     3.3946341912     -0.1530327837     1.2450257667
C     2.2387684535     -2.0569344705     0.1802383535
C     0.1880367287     -2.4620585024     1.6427145113
C     0.9188697993     -2.640433294     0.3848275049
C     -1.742055728     -1.2350446513     2.6086071863
C     -1.2368187931     -2.109030134     1.5857391232
C     -1.8612868166     1.1037872349     2.7148346672
C     -2.5492418103     -0.1185020301     2.2408939801
C     -0.1817854187     2.4323425567     1.4604529528
C     -1.5884006503     2.1282271039     1.7302564612
C     0.1926739759     2.7499237341     0.0729884553
C     2.4186759869     1.7521042928     0.4643802879
C     3.1865434121     0.5893438499     0.0772973291
C     1.498304682     2.3163103985     -0.4344460129
C     2.581702883     -1.4881301704     -1.1357868915
C     2.9666977788     -0.0770626812     -1.1584079583
C     1.883569402     -1.9910762729     -2.2741397439
C     0.1475961564     -2.8956793261     -0.7897711466
C     0.7039739284     -2.762265341     -2.0597934344
C     -1.9361244352     -2.0573702306     0.2882153967
C     -1.275702362     -2.5346335065     -0.8592790218
C     -3.2591043187     -0.0917930844     1.0474559944
C     -2.9781564975     -1.1131300445     0.039520438
C     -2.565329108     2.2287792364     0.6926346325
C     -3.5192951186     1.1387445375     0.4347264335
C     -0.8445929334     2.9101072667     -0.8988028901
C     -2.1936983219     2.7362541286     -0.5643273137
C     -0.6801506126     2.3889781142     -2.2712822947
C     1.6734893103     1.9237139812     -1.8057135606
C     2.4562123123     0.7779445464     -2.180916213
C     0.5605061792     2.0135042662     -2.7525059772
C     1.6073251455     -1.1527284688     -3.4190098435
C     1.8509099356     0.1980971782     -3.3483838395
C     0.6271169906     0.9403614088     -3.6700954133
C     -0.3567574582     -2.246073256     -2.9511290547
C     -1.5438570795     -2.0165641208     -2.1729059458
C     0.1619804854     -1.2907169938     -3.7793824426
C     -0.4536624338     0.0241125592     -3.8320569911
C     -3.1511235915     -0.488942455     -1.2478417318
C     -3.5326069113     0.8875346182     -0.9863764304
C     -2.7990813161     1.8848172192     -1.6113361542
C     -1.8511020477     1.6072449705     -2.6250473883
C     -2.310986262     -0.8187450576     -2.3576246525
C     -1.7004448767     0.2738815699     -3.1629390172


