56

 C     1.5416823983     -0.2543904404     4.2344899438
C     0.7399402632     -1.3940598896     4.2403888875
C     1.2421421122     -2.3627176419     3.3356641315
C     2.561429662     -0.4200511744     3.2031128716
C     2.3422142013     -1.7082664431     2.594337258
C     2.4396422861     0.6875849107     2.3347404715
C     0.7118002966     0.8616245549     3.8680787461
C     1.33851289     1.5564522621     2.8238559816
C     -0.6497637296     -1.0344719648     3.8704039116
C     -0.6648893139     0.3935371     3.6389241207
C     0.1181998346     -2.8024915615     2.5693948811
C     -1.0309340075     -1.8855015584     2.8242735187
C     0.3122820586     -3.2276780342     1.2904699737
C     2.432140096     -1.8859444149     1.1771952162
C     1.6026483013     -2.9301704923     0.637608349
C     2.6372225951     0.581217605     0.9170046136
C     2.681370124     -0.7279560746     0.2872381185
C     2.180428228     1.6944659855     0.1545448539
C     0.5655272319     2.3083997405     1.9117384916
C     1.175890676     2.6237796416     0.6831095149
C     -1.4095359346     0.9205397009     2.5744360909
C     -0.8906056093     2.1261395366     1.8962619329
C     -1.8291272248     -1.4110028337     1.7147421448
C     -2.1889842651     -0.0122742596     1.7417879355
C     -0.716570305     -3.0826407493     0.2745752467
C     -1.7588108687     -2.0897280787     0.4230064688
C     1.368798275     -2.9970096284     -0.727471348
C     -0.063786412     -3.1830434451     -0.9595579894
C     2.4061827367     -0.8063528752     -1.1526806665
C     1.8025767082     -2.0083178336     -1.6406407952
C     2.0529166566     1.6616099765     -1.2561799602
C     2.1723680862     0.4133582047     -1.9552060732
C     0.4425042124     3.1450298388     -0.4225842542
C     1.0787239159     2.6779102161     -1.6535930737
C     -1.597205542     2.6485186662     0.8011910196
C     -0.9447394934     3.260057725     -0.353349329
C     -2.8331186498     0.5104009947     0.602666256
C     -2.6881102674     1.8930424093     0.2727049693
C     -2.2566106879     -1.443002859     -0.8006964729
C     -2.9099223533     -0.2001701576     -0.6445184108
C     -0.4404264108     -2.4850183336     -2.1230987342
C     0.7917987251     -1.9395295775     -2.6910529006
C     -1.631290615     -1.7043740083     -2.1257755959
C     1.4791489616     0.3481383162     -3.2094318265
C     0.7198010299     -0.8661705244     -3.5364359394
C     0.3646251699     2.5694045546     -2.8263438106
C     0.7005278453     1.4615572706     -3.6959479817
C     -1.7346711133     2.9569681323     -1.5518358079
C     -2.8066762188     2.0967437149     -1.1298601619
C     -2.986980157     0.8086120522     -1.7352397963
C     -1.1126783258     2.6979715438     -2.7828580819
C     -1.7150541104     -0.727674267     -3.1749438063
C     -0.583483428     -0.4596120429     -3.9858181381
C     -0.5228155847     0.9646850937     -4.2077730102
C     -2.4154716612     0.5668952222     -2.9701803722
C     -1.6207832989     1.6149761743     -3.5848716029


