56

 C     1.4589087638     -0.1292238093     4.1535920718
C     0.7247716241     -1.2892820166     4.3218040524
C     1.2410311491     -2.3102606078     3.4113445362
C     2.4463874929     -0.3369543415     3.1343706133
C     2.2502441022     -1.6921992049     2.5960243193
C     2.3426450637     0.7360553583     2.2340764798
C     0.5735768995     0.9666830083     3.7084075402
C     1.1946301539     1.6082265721     2.6299592259
C     -0.6304518082     -1.0038161343     3.9025580031
C     -0.7343562473     0.4286664688     3.5087758734
C     0.123713783     -2.8843444991     2.7500787213
C     -1.064746635     -1.9990349296     3.0188271153
C     0.2793965457     -3.3548540708     1.4567716209
C     2.242907767     -1.8753762408     1.1630270344
C     1.3605040868     -2.8539796971     0.6303658771
C     2.574220386     0.5836050446     0.8448109564
C     2.5378041852     -0.7410642299     0.2744971209
C     2.2777865963     1.7480027401     0.0246661863
C     0.4241542971     2.1912309135     1.6082549367
C     1.1506296394     2.5890356201     0.409424127
C     -1.4787628048     0.7881122385     2.3645852769
C     -0.9812653807     1.8809042183     1.5199443164
C     -1.9796644627     -1.6761669657     1.9620165753
C     -2.3071106413     -0.2506855522     1.7170184202
C     -0.8767807918     -3.3947293952     0.6117817289
C     -2.0190868355     -2.5739587977     0.8515910114
C     0.8526738906     -2.7752685366     -0.7495254519
C     -0.502201866     -3.2206300599     -0.7468070716
C     2.2516990371     -0.8209004826     -1.1516455631
C     1.24819514     -1.7707118217     -1.6420629452
C     2.6027587372     1.6468577828     -1.3395121593
C     2.5130591261     0.3204350074     -1.9306039189
C     2.0727484729     2.5829456524     -2.2948895732
C     0.4314280524     3.2533606535     -0.6019079646
C     0.9624939673     3.3496107204     -1.9202587227
C     -1.6735484852     2.2345665143     0.2909296663
C     -1.0078553072     3.0096063718     -0.700021553
C     -2.9326295677     0.0814819903     0.5139976699
C     -2.7387782901     1.3723981443     -0.1410968127
C     -2.5059224198     -2.1441141866     -0.4465971508
C     -1.516989102     -2.5040408502     -1.4548272402
C     -3.1273852296     -0.915648603     -0.5526308743
C     0.2853722881     -1.3265502667     -2.6829110274
C     -1.1508774154     -1.6045374794     -2.479993692
C     1.8587414304     0.4951143396     -3.2095853654
C     1.7155493254     1.8657447832     -3.5093653265
C     0.6267891778     -0.2085999245     -3.4617739911
C     -0.1318088136     3.0910984073     -2.8774138012
C     -1.3127600803     2.8739284201     -2.1248197574
C     0.3311631927     2.1158648951     -3.7985354388
C     -0.3576831835     0.8357100452     -3.853668159
C     -2.9672738119     1.2098913782     -1.5311769714
C     -3.0484993801     -0.2294199887     -1.7851786184
C     -2.0806284748     -0.5333952449     -2.7593535741
C     -2.1898658436     1.8262659052     -2.5211180844
C     -1.6390514855     0.7343447136     -3.3462202788


