56

 C     1.5193281736     0.0540538764     4.2000396498
C     0.6898409514     -1.1329946635     4.0514603068
C     1.3881513247     -2.0992485871     3.3136306935
C     2.6550445757     -0.1167420814     3.3079353498
C     2.5897592231     -1.4153168528     2.7908005274
C     2.6620265256     0.9582920966     2.3304876094
C     0.7630931147     1.0858371065     3.6241692665
C     1.4999988773     1.7689182206     2.5938729647
C     -0.6421022435     -0.7544272846     3.5974233896
C     -0.6014192797     0.6814023031     3.3068193637
C     -1.3072346283     -1.5999492506     2.7149158606
C     0.7746705828     -2.7847070309     2.2230848057
C     -0.6071998834     -2.6749812154     2.0307245236
C     2.670841635     -1.6877015517     1.3821287629
C     1.6248259612     -2.6195583184     1.0389649116
C     3.0466843852     0.7349892535     0.9646804948
C     3.0486480268     -0.6536243951     0.4604873124
C     2.6750408335     1.7517665393     0.0645769532
C     0.8220431882     2.451703024     1.561464099
C     1.6291059463     2.7087850406     0.4105986604
C     -1.2752403843     1.2372969856     2.2028939218
C     -0.6211618056     2.2902822999     1.3836363649
C     -2.2263148835     -1.0325768257     1.7616875378
C     -2.2846632893     0.378037047     1.556784388
C     -1.1732925654     -2.7712657265     0.7025027259
C     -2.3270215338     -1.9102797512     0.6204628428
C     1.0890582337     -2.6769593431     -0.2746779082
C     -0.3568264764     -2.9092230056     -0.4590415175
C     2.6909713149     -0.8705455658     -0.8903964204
C     1.7749586537     -1.909584738     -1.2596259052
C     2.5851364949     1.5360137702     -1.381193979
C     2.5304915808     0.2202384325     -1.846404961
C     1.0373544283     3.1342971191     -0.7813579021
C     1.6577440038     2.4733050535     -1.914865423
C     -1.2042205614     2.6678902989     0.1192068903
C     -0.3673506563     3.1415163399     -0.9638304925
C     -2.8838452462     0.794002838     0.351778299
C     -2.4432605998     2.0426712997     -0.3023620859
C     -2.8750916194     -1.4823901125     -0.6112342641
C     -3.3745795869     -0.1234430777     -0.6359648344
C     -0.9536256671     -2.576435381     -1.7030443689
C     -2.2834061766     -2.0176245668     -1.8085541609
C     1.1144533829     -1.5080682705     -2.4812513935
C     1.5473315957     -0.1519061968     -2.8347156299
C     -0.1610505395     -1.9669909602     -2.7748498434
C     0.6453036723     2.1217233912     -2.8272489061
C     -0.6061980417     2.7399669699     -2.3451885735
C     0.6091354926     0.783335591     -3.3699274111
C     -2.7800746612     1.9410105662     -1.6446888568
C     -3.3792489114     0.6021754212     -1.8687889344
C     -1.8178415726     2.1674090511     -2.6960721166
C     -2.327016059     -1.2408801667     -3.0250978062
C     -1.0194082764     -1.1410213869     -3.56088859
C     -0.6961334881     0.2661248062     -3.787053734
C     -2.8807874825     0.076799622     -3.042737527
C     -1.8654259996     1.0186019429     -3.5761549703


