56

 C     1.4392876844     -0.0321755403     4.2377191019
C     0.6655843078     -1.2388082053     4.045964488
C     1.5124782177     -2.1921541522     3.4245361049
C     2.6233663165     -0.1588977523     3.3726922902
C     2.7094157652     -1.4533194606     2.8892312581
C     2.6376606547     0.9221244542     2.4211580455
C     0.7108186821     1.032660685     3.7164607634
C     1.5111725113     1.7581563302     2.7487401296
C     -0.5675609142     -0.8978675297     3.3672730786
C     -0.5673252688     0.5502674652     3.205154723
C     -1.0801266861     -1.6977585597     2.2916338932
C     1.0288678332     -2.989109656     2.4118826878
C     -0.2944111642     -2.8483570602     1.9002384411
C     2.8034889172     -1.7467320439     1.4728681761
C     1.9341676261     -2.8584270876     1.2432783836
C     2.8943624337     0.6770981526     1.0193572471
C     2.8510165598     -0.6906576385     0.481110648
C     2.5293086507     1.7274722143     0.1668194419
C     0.887015368     2.5591689887     1.7872493314
C     1.6983496988     2.8158183663     0.6330529022
C     -1.1857841073     1.1886861063     2.1174004376
C     -0.5642733414     2.4223718711     1.5856363846
C     -1.9140468432     -1.0524181493     1.2717610922
C     -2.0367916747     0.3902923998     1.2320751332
C     -2.2085555503     -1.7949510464     0.0418599976
C     -0.1985052682     -3.1106199361     0.4866609855
C     1.2064861945     -2.9856217286     0.0847926775
C     -1.2058308748     -2.7766388164     -0.3944690415
C     2.2497229841     -0.9127334554     -0.8442201846
C     1.4918236941     -2.1387928846     -1.0474820754
C     2.223213587     1.5210703128     -1.2521241508
C     1.9380659109     0.2030861866     -1.7518979084
C     1.1216141885     3.4179664278     -0.4937012201
C     1.4927892233     2.6269807942     -1.7072477629
C     -1.1091194355     2.9850963615     0.4181765192
C     -0.2339038737     3.6149183886     -0.5556457103
C     -2.6132733555     1.0346823399     0.0505277398
C     -2.1567524264     2.3292899849     -0.3206028601
C     -2.9926389698     -1.2061301114     -0.9711661827
C     -3.1912082155     0.2187451183     -0.9841536844
C     -2.8447435305     -1.6155622019     -2.372503776
C     -0.8001520179     -2.744112567     -1.7809831904
C     0.5427963743     -2.2078177896     -2.0638555196
C     -1.6643807749     -2.3009727426     -2.7668220909
C     0.958848765     0.0973416089     -2.8417336808
C     0.370134591     -1.1977073438     -3.0746248819
C     -0.919404955     -1.3698407117     -3.6534525061
C     0.3823214234     2.5065768918     -2.5668267642
C     -0.691291357     3.2031540991     -1.8886707153
C     -1.9287342144     2.590262317     -1.7586589966
C     0.1212139075     1.2561922189     -3.2215166728
C     -3.2207432703     0.6355413696     -2.3845981449
C     -3.0434617004     -0.4887843811     -3.2243594012
C     -1.7550003814     -0.2704747385     -3.8855653175
C     -2.2882425589     1.6520101953     -2.7397383932
C     -1.2591293406     1.0404116217     -3.5786912506


