56

 C     1.6104866446     -0.2991326124     4.3386750726
C     0.782159765     -1.4392267527     4.3386750735
C     1.2623321775     -2.3948243663     3.4017015475
C     2.6676954168     -0.4605078138     3.4017015459
C     2.5070122657     -1.8214510283     2.8591578987
C     2.5380856206     0.6229175952     2.4702432057
C     0.7964050433     0.8648757919     4.0065220229
C     1.3787848463     1.4604994154     2.8710418083
C     -0.5764430625     -1.0246875187     4.0065220244
C     -0.5876925486     0.4269836338     3.9140449354
C     0.1918817518     -2.6063549886     2.4702432083
C     -0.9629495361     -1.762621448     2.8710418108
C     0.4223156759     -2.8233142245     1.0849722488
C     2.7592589202     -2.0047189516     1.5365658564
C     1.81997617     -2.7633342325     0.6869327525
C     2.8156341131     0.4708059994     1.0849722462
C     3.1904905945     -0.8769829586     0.686932751
C     2.1676737623     1.3292765509     0.0864602561
C     0.5752224338     2.091223051     1.8598314049
C     1.0581628422     2.1971808141     0.4774729849
C     -1.3745162524     0.9986445163     2.9447995461
C     -0.8308884147     2.0182815     2.0579785485
C     -1.8111178014     -1.1932925019     1.8598314075
C     -2.1762584108     0.1665385626     2.05797855
C     -0.5943690967     -2.4723493003     0.0864602591
C     -1.7626528304     -1.6853388752     0.477472988
C     -0.204996268     -2.4178221572     -1.3233477434
C     2.1524795597     -2.4822479131     -0.6345437242
C     3.0259108155     -1.2800729249     -0.6345437252
C     1.2001145174     -2.3035315199     -1.6347277291
C     2.2361381874     0.9421111695     -1.3233477461
C     2.5616444422     -0.4295463488     -1.6347277306
C     1.6134667649     -1.172252225     -2.4631853442
C     1.4482403122     1.5974637473     -2.2796321788
C     0.164669171     2.7293379872     -0.5349744281
C     0.5257160459     2.6308026641     -1.9170696826
C     -1.6965926893     2.1226123739     0.927886124
C     -2.5430003015     0.9576322402     0.927886125
C     -1.284025446     2.6978032316     -0.2828393628
C     -2.5448691066     -1.0000215076     -0.5349744252
C     -2.9625490267     0.3875137241     -0.282839361
C     -1.071747441     -1.871001833     -2.2796321761
C     -2.3395868266     -1.3129484028     -1.9170696795
C     0.7477779744     -0.5432925028     -3.3468374041
C     0.8754662006     0.9030615226     -3.4596720268
C     -0.5883286149     -1.111679195     -3.4596720252
C     -0.4247036259     2.7547051635     -2.9801354458
C     -0.1786898946     1.6732029971     -3.9510776284
C     -2.2058405575     2.5018481434     -1.3558555849
C     -3.0610411983     1.3247654441     -1.355855584
C     -1.8088366919     2.7307294688     -2.7193307148
C     -2.7511209365     -0.4473335595     -2.9801354432
C     -1.6465288306     -0.3471039748     -3.9510776268
C     -1.4569601196     1.0585434864     -4.2336386724
C     -3.1560393343     0.8764641101     -2.7193307133
C     -2.4928571389     1.8111667267     -3.603930288


