56

 C     1.4605565051     -0.101228519     4.008824255
C     0.7006120843     -1.2569764286     3.8090927966
C     1.3634941611     -2.1259548271     2.8418153202
C     2.5338706866     -0.1169365095     3.0443372488
C     2.5851220172     -1.429436918     2.4554659449
C     2.3450370028     0.9816132183     2.1755115357
C     0.6127545395     1.0368852569     3.755737716
C     1.1638149938     1.7409590416     2.6514593296
C     -0.697453823     -0.8777287979     3.6445476382
C     -0.750413227     0.5990682679     3.680334814
C     -1.4485549833     -1.5389003503     2.6885981772
C     0.5841889548     -2.7775990713     1.8369542737
C     -0.8296616264     -2.5132181255     1.7775733727
C     1.2145550178     -3.0654768864     0.5693340022
C     3.0539026079     -1.5277153969     1.1507713612
C     2.50301984     -2.5324582022     0.319420397
C     2.6280481807     0.8883793131     0.7542098547
C     3.1672319586     -0.3370854528     0.3027900638
C     1.9116003015     1.7677969009     -0.1908840369
C     0.3283561147     2.3840297671     1.7088139062
C     0.8127081386     2.5653808424     0.3262286974
C     -1.6011561297     1.2723796582     2.8134541835
C     -1.0870674912     2.3027875375     1.9394312945
C     -2.4917844485     -0.8417988737     1.9468807859
C     -2.6087520734     0.5453706851     2.0451433091
C     -1.5095250091     -2.4291328129     0.5295963759
C     -2.5918254696     -1.4610826943     0.646503944
C     0.4875693196     -3.0294005376     -0.6934769931
C     -0.8682980229     -2.6384253269     -0.7536635206
C     2.589687891     -2.1206144786     -1.0629435472
C     2.9465862407     -0.7530223969     -1.0833229154
C     1.4164965886     -2.5522250048     -1.7275268444
C     1.9727895082     1.4707099374     -1.6329317095
C     2.3828437344     0.1172251974     -2.0531100523
C     1.1102661113     2.1924828103     -2.5169294401
C     -0.1329017147     3.1068035182     -0.5984811419
C     0.0897260173     3.0118545628     -1.9719650367
C     -2.0066348635     2.4408152221     0.8354551725
C     -2.9279374834     1.3143650772     0.8624978062
C     -1.5822594181     2.9529634115     -0.3675671839
C     -3.0032808926     -0.7371195731     -0.4602948483
C     -3.2482694318     0.6876247099     -0.3433493786
C     -1.3824529817     -1.9174553489     -1.9444265579
C     -2.4568931374     -0.9945232269     -1.7854198155
C     0.9726598741     -1.7981592611     -2.7865410696
C     1.6224391493     -0.5385618947     -3.0895498867
C     -0.4655955353     -1.6261165057     -3.0280621303
C     0.5005611777     1.5375940005     -3.6721663114
C     0.6895063193     0.1973169162     -3.870468643
C     -0.6289051972     -0.4943469817     -3.8369270644
C     -1.1946864605     2.7037615017     -2.6419313105
C     -2.1805856205     2.5042647029     -1.6160667843
C     -2.912929501     1.2998002331     -1.6128875706
C     -2.549563897     0.2369023822     -2.5511464223
C     -0.9641084126     1.7841481034     -3.6357388652
C     -1.6285081648     0.4894176277     -3.5930044663


