56

 C     1.5449498623     0.0593161035     3.8413900942
C     0.6679778151     -1.1029900232     3.6569365101
C     1.1391081973     -1.8673485204     2.5700654978
C     2.4407756701     0.1165374589     2.7963277758
C     2.2862101611     -1.1040193964     2.0094358778
C     2.2880157094     1.4230381259     2.1345388944
C     0.7336405478     1.2557977894     3.8675186068
C     1.2513570583     2.1522187858     2.8670405742
C     -0.6761015855     -0.6225556427     3.6921098181
C     -0.6346262785     0.8560141185     3.8308530976
C     -1.5866154549     -1.1985135619     2.8023868026
C     0.2234351109     -2.4828907137     1.6683874281
C     -1.1631765368     -2.2323413347     1.90099155
C     0.6780399604     -2.7750075087     0.2982390211
C     2.5221870797     -1.0758990263     0.6594599535
C     1.9260591496     -2.1446650624     -0.1867979765
C     2.3656083867     1.4795569605     0.7476599679
C     2.8089384511     0.2496988913     0.0372446523
C     1.52555417     2.4335021437     -0.0102591069
C     0.3453691207     2.9297641082     2.1345326381
C     0.5185175178     3.1090558319     0.6992562257
C     -1.5496577521     1.6333666492     3.0753204538
C     -1.0533837442     2.7534847469     2.3768917324
C     -2.5636773576     -0.3779336058     2.0710168354
C     -2.5357330167     0.9954393864     2.1799756409
C     -2.0715419354     -2.229828546     0.7706168939
C     -2.8407336204     -1.0166593787     0.7884958616
C     -0.272489592     -3.1471838801     -0.6671035077
C     -1.6877132348     -2.8110084563     -0.4261657423
C     -0.0182558256     -2.9804588805     -2.091782912
C     2.219603178     -2.1216144797     -1.5454547865
C     1.2315948159     -2.5370189485     -2.5425528569
C     2.9388820466     0.2942519781     -1.3265882126
C     2.9154172199     -0.9466220675     -2.0963466242
C     1.3638539515     2.2368979149     -1.4609506106
C     2.2503476367     1.342062334     -2.1271107565
C     0.070516858     2.4016779965     -2.0437868287
C     -0.8245731818     3.2003538385     0.0978444189
C     -1.7588998719     2.8725199028     1.1054329404
C     -2.648442675     1.7900051868     0.9458229261
C     -1.0506687826     2.7136990351     -1.1786473388
C     -3.0268593746     -0.2724366118     -0.4168410303
C     -2.8114329935     1.1772362297     -0.3461442156
C     -2.1158276708     1.7848111605     -1.436251111
C     -2.1977137841     -2.2593373101     -1.6225081493
C     -1.1932518861     -2.4053087309     -2.6704957203
C     -2.7348143547     -0.9557257233     -1.6493413755
C     -0.4009816089     1.5065442509     -3.0621382645
C     -1.7288210555     1.0431708971     -2.631987804
C     -1.1415222444     -1.2162960416     -3.4270206632
C     -2.0846064626     -0.2793946055     -2.7837910044
C     1.2728062881     -1.5667510464     -3.6053033032
C     2.369716828     -0.66599879     -3.329794721
C     1.8617137737     0.7109468276     -3.326340774
C     0.1223802321     -0.7766283343     -3.8977966593
C     0.4895451141     0.6514675648     -3.7164906036


