56

 C     1.4040253003     0.0183633861     4.2213530923
C     0.5625237165     -1.1546309321     3.9273417211
C     1.3205395093     -2.0598802314     3.1832397266
C     2.5499370779     -0.079353048     3.3409322138
C     2.5895708014     -1.3579193716     2.7998282433
C     2.5390687686     1.0561291858     2.4027246992
C     0.6709747177     1.1156350942     3.7827777104
C     1.3840946933     1.8399034756     2.7297388428
C     -0.732870828     -0.7384770809     3.4420167128
C     -0.6974523699     0.7187388709     3.4880555043
C     -1.3450436043     -1.3783647517     2.3163573887
C     0.7978626845     -2.6254164699     2.0098529946
C     -0.5745444758     -2.4160405472     1.6260426463
C     2.8121975946     -1.5809355601     1.4203097668
C     1.8295797375     -2.5342862787     0.9681386088
C     2.9248354578     0.8845731159     1.0364205988
C     3.1705394723     -0.489872714     0.5324494167
C     2.3823880294     1.8235455071     0.1075856232
C     0.6494432155     2.5458435935     1.723287414
C     1.2505392895     2.6416507143     0.4421674845
C     -1.4061616624     1.4433912212     2.5645958455
C     -0.7910773496     2.505683581     1.7649814282
C     -2.3250646608     -0.6121661568     1.5220891868
C     -2.3793962778     0.7912687547     1.7340837842
C     -2.7666017468     -1.0882804005     0.2022105247
C     -0.879469315     -2.6960032383     0.2666944979
C     -2.0410152508     -2.167578043     -0.3905108153
C     1.5238403932     -2.69332308     -0.39123078
C     0.1517327746     -2.965694659     -0.7251912663
C     3.0162856141     -0.7438630404     -0.8387335749
C     2.312147211     -1.9354463206     -1.3200812334
C     2.312581711     1.5574723529     -1.3121157145
C     2.731373606     0.319125948     -1.8009518963
C     0.4602507466     2.8348992724     -0.7624256965
C     1.1385636046     2.1972158333     -1.8649470497
C     -1.5621968321     2.6568622424     0.5918189276
C     -2.6714625044     1.707433835     0.6564886268
C     -0.9583075121     2.9109733612     -0.7076456747
C     -3.4169143493     -0.1745277284     -0.7005632972
C     -3.2958020249     1.2747147347     -0.4838060543
C     -3.2879682882     -0.3381045519     -2.1086676708
C     -1.7743834099     -2.193128303     -1.8158428469
C     -0.3765618047     -2.6076935991     -1.9984821853
C     -2.343730847     -1.2649508343     -2.6667666103
C     1.7689717271     -1.6357109979     -2.5860642377
C     2.0224268297     -0.2439933797     -2.900604982
C     0.424100675     -1.9356520699     -2.9406950789
C     0.3915806839     1.619505595     -2.9427875926
C     -1.4689274843     -0.4824059274     -3.5919868152
C     0.8534031771     0.3284708556     -3.4388756423
C     -0.1160614069     -0.7591139123     -3.6341388572
C     -1.6942806032     2.522362033     -1.8730196518
C     -3.0023215424     1.9254516621     -1.7471657382
C     -3.1181046599     0.9452172851     -2.7497404667
C     -1.0101725034     1.8844920863     -3.0006111344
C     -1.9094854961     0.8838896304     -3.5099306473


