56

 C     1.6625884027     -0.0002462864     3.7538967415
C     0.8323228893     -1.1620619503     3.5783041186
C     1.4173378892     -2.0839603898     2.6516478834
C     2.5967686065     -0.0552771479     2.6887707127
C     2.4857590197     -1.3224470679     2.0091812935
C     2.4861870326     1.1259377752     1.8918778537
C     0.8367785309     1.1384957401     3.5103451904
C     1.4259091766     1.9361838352     2.4841680844
C     -0.5276384732     -0.7560999109     3.3932637124
C     -0.5252894638     0.7220689548     3.2967049666
C     -1.3195266158     -1.5104464298     2.530018121
C     0.5821114415     -2.9270628432     1.8639342748
C     -0.8312721966     -2.6867449897     1.869756929
C     1.1630192538     -3.4033593747     0.6471021005
C     2.6865112747     -1.427079696     0.5992822335
C     2.2227795907     -2.657936787     0.034272886
C     2.612504031     1.0666532467     0.4665402692
C     2.7191892764     -0.224057483     -0.2313544608
C     2.0916617957     2.1838729948     -0.2164532538
C     0.6255506761     2.7811731458     1.6912499669
C     1.2202439377     3.1384623275     0.440372124
C     -1.3513479631     1.4019237532     2.3683134828
C     -0.8351475481     2.6377226125     1.7420902196
C     -2.2550376939     -0.8257508424     1.6525529553
C     -2.3197280589     0.5876274398     1.6091690108
C     -1.565299903     -2.7841598448     0.6079614532
C     -2.4004443335     -1.6151432664     0.4639614245
C     0.3344573098     -3.8979752005     -0.4384896901
C     -1.0266802715     -3.3964506035     -0.5204072733
C     2.0577057421     -2.7880785502     -1.3948242735
C     0.9681375015     -3.6927861005     -1.6764358662
C     2.2449948047     -0.3130601462     -1.6070484085
C     1.9290117089     -1.6098544674     -2.1553454816
C     1.7092366631     2.1256960941     -1.6260922614
C     1.6292486915     0.8459379213     -2.266407109
C     0.4406707911     3.7494238785     -0.5729788368
C     0.7638138115     3.1332092906     -1.8805582491
C     -1.5819767516     3.2106157839     0.6722480502
C     -0.9245902626     3.861903515     -0.4374320185
C     -2.8986915359     1.1275567083     0.4178186279
C     -2.641541541     2.4542745606     0.0719689928
C     -2.6453031258     -1.0256564098     -0.8264480696
C     -3.0100228399     0.3344920425     -0.8139861094
C     -1.2069995702     -2.792022497     -1.8444453033
C     0.052182532     -2.956530014     -2.5069109205
C     0.7112229651     -1.7804785419     -2.9813298924
C     -1.9497135084     -1.5784827844     -2.0022978127
C     0.4940915798     0.656853248     -3.1296178744
C     -0.0528072084     -0.6804137715     -3.2850033508
C     -1.4523745846     -0.6241840985     -2.9490534974
C     -0.4561335971     2.8605573813     -2.5574300808
C     -1.5233709459     3.3753068747     -1.7265447775
C     -2.5710628177     2.5501095084     -1.3948487323
C     -2.7192617934     1.217944625     -1.9311400072
C     -0.6033479083     1.5797172252     -3.1421978304
C     -1.8073864139     0.7740870228     -2.8916922182


