56

 C     1.6039873058     -0.2459930122     4.2267565187
C     0.7281795697     -1.4485220463     4.2273269763
C     1.2246346136     -2.3297445241     3.2342682609
C     2.5945807044     -0.4487381522     3.2333750712
C     2.4841295397     -1.80791075     2.7229821304
C     2.5913829442     0.6547878538     2.2669962056
C     0.8284244455     0.8419129645     3.7864746081
C     1.4681616931     1.4789596926     2.623346743
C     -0.5454133496     -1.0444363938     3.7873701465
C     -0.5430609927     0.3972249794     3.6050644663
C     0.1729180656     -2.665888391     2.268572479
C     -0.9559712878     -1.8494992199     2.6249269031
C     0.4787230239     -2.8843054352     0.907697748
C     2.788085195     -2.029906475     1.4100813399
C     1.8910297478     -2.8322796787     0.5596347243
C     2.8924783122     0.4299042152     0.906124337
C     3.2761342604     -0.9304599172     0.5587319312
C     2.2457713341     1.2619766444     -0.1331331359
C     0.6859789254     2.0791945302     1.6385955974
C     1.1626097836     2.1417343026     0.2485002434
C     -1.327494875     0.9680663618     2.6236964884
C     -0.773626498     2.098421597     1.8604442706
C     -1.7676917963     -1.2898213311     1.6401948114
C     -2.2337333417     0.0936198662     1.8613958639
C     -0.5121101702     -2.5247363714     -0.1313355887
C     -1.6816012631     -1.763513445     0.2503540525
C     -0.0837076666     -2.4685569337     -1.5392761026
C     2.2400815369     -2.5409086397     -0.7482860576
C     3.1053233946     -1.3528866903     -0.7488500261
C     1.3194074783     -2.4002817828     -1.8059804707
C     2.3231097927     0.8361270533     -1.5408448622
C     2.6885169333     -0.520424241     -1.8068728994
C     1.8336437688     -1.3367239431     -2.6797840351
C     1.4651342543     1.442147439     -2.5164317276
C     0.2575140583     2.7313839972     -0.7609775109
C     0.4467120222     2.4164496638     -2.1313140702
C     -1.5872750923     2.6798977752     0.9195873815
C     -1.074975344     3.1234193339     -0.3698258033
C     -3.0372346995     0.6890287022     0.9205322475
C     -2.9295759574     2.1339590505     0.7048428069
C     -2.5209711019     -1.08361883     -0.7591665016
C     -3.3027601685     0.0645564118     -0.3683737625
C     -0.9241855359     -1.8385114118     -2.5148744157
C     -2.1637958899     -1.1679117127     -2.1296125181
C     1.0034582618     -0.7325232928     -3.5801208027
C     0.9908373825     0.7131755072     -3.6367414856
C     -0.3764066836     -1.1641210572     -3.6358505065
C     -0.6827055851     2.2547095133     -3.0356108976
C     -2.3567980548     -0.0439055171     -3.0345196148
C     -0.3682123846     1.1360792624     -3.8841699889
C     -1.1960130094     -0.0005335679     -3.883630212
C     -2.1667174046     3.0083252779     -1.2830644588
C     -3.2985260287     2.4020502296     -0.5949900213
C     -3.5286027862     1.1383867365     -1.2821768572
C     -1.9854891039     2.3702758587     -2.5413170698
C     -2.8662922861     1.1608879628     -2.5407429693


