56

 C     1.6568473322     -0.0484779781     3.7770777903
C     0.8443278826     -1.226815668     3.5622183231
C     1.4492797226     -2.0700214787     2.5811857927
C     2.6678850902     -0.0440495859     2.8226535033
C     2.6185124085     -1.3097247581     2.1039094746
C     2.617535991     1.2094895846     2.077272974
C     0.8368980556     1.1207876211     3.5459266687
C     1.4852847451     1.9646332734     2.5761821382
C     -0.4949148621     -0.780685931     3.3686611408
C     -0.4851398962     0.7086677617     3.2879353609
C     -1.2905839921     -1.4957483363     2.496456035
C     0.6389012792     -2.7924281357     1.6438560161
C     -0.7702105367     -2.6040518234     1.7459363753
C     1.1663789111     -3.0765382046     0.2873749912
C     2.8904771306     -1.313338219     0.7509641133
C     2.2746557678     -2.2868990856     -0.1365293067
C     2.880720623     1.2020547359     0.6813569803
C     3.0784850297     -0.0657107464     0.0158530558
C     2.2989496444     2.2350711277     -0.0897663733
C     0.70983448     2.7898425598     1.7269413666
C     1.343839713     3.1408029895     0.4841155924
C     -1.3020336533     1.4072739842     2.337803233
C     -0.758566826     2.6266581303     1.722159882
C     -2.2746455523     -0.8119180465     1.6718709014
C     -2.3162790253     0.6229170966     1.6217463303
C     -1.637705391     -2.7594224296     0.5892110778
C     -2.5579207542     -1.6266422055     0.5410297163
C     0.2717680533     -3.5251054593     -0.7400639232
C     -1.1826859781     -3.3581475426     -0.5679080152
C     0.5154105039     -3.1936943938     -2.1076140945
C     2.2726537565     -1.6969592452     -1.4458699119
C     2.6134087711     -0.2893994373     -1.3094734989
C     1.3832344394     -2.1072399885     -2.418366422
C     1.9251625151     2.0208073487     -1.4988582507
C     1.9062410171     0.7101172171     -2.0603924864
C     0.5669826363     3.6591788316     -0.5950266014
C     0.9135595236     2.925598696     -1.8320577091
C     -1.4866766684     3.189378262     0.619563558
C     -0.7912428496     3.7721154859     -0.5127147851
C     -2.9080478386     1.1745540882     0.4473987096
C     -2.574394745     2.4737776558     0.0553491333
C     -2.9276419881     -1.0495129735     -0.7315514661
C     -3.09547826     0.3544435976     -0.7623339376
C     -1.7506368429     -2.9379244372     -1.8414103955
C     -0.7357653777     -2.9459611173     -2.7917342477
C     -2.474744119     -1.6737057221     -1.9245183532
C     0.5997133968     -1.0811458325     -3.165369165
C     0.7709132742     0.3193989533     -2.9059793191
C     -0.6817021504     -1.6253306577     -3.3799032459
C     -1.8228532632     -0.8671987476     -2.9373015857
C     -0.2740726826     2.534816677     -2.5031564069
C     -1.3486843008     3.1847859836     -1.7765098771
C     -2.4493341452     2.4603456027     -1.4186521673
C     -2.6572596914     1.1291251508     -1.8891697008
C     -0.4142934417     1.1863098704     -2.9768479145
C     -1.7343468821     0.5408458717     -2.8229310436


