56

 C     1.2591961714     0.0537204662     3.918849313
C     2.3973970139     -0.0719645245     3.1071869934
C     2.408804572     -1.432598233     2.5538016011
C     0.438957753     -1.1792741781     3.7428772313
C     1.1777607872     -2.0670926722     2.895253882
C     -0.8706672404     -0.7892594711     3.4025739581
C     0.4390419463     1.1608122288     3.7754269914
C     -0.9365036347     0.6554417593     3.5458119635
C     0.6808915963     2.1247448707     2.7591463651
C     2.614800021     0.8274423183     2.0274756902
C     1.755842211     1.9597323533     1.8100671216
C     2.8287823936     -1.3845432082     1.2139845127
C     3.0346392589     0.0183428254     0.878246929
C     2.2364123935     -2.2646669986     0.2354619889
C     0.4693395546     -2.7599972972     1.8835769025
C     1.0523311005     -2.9778654413     0.5978361529
C     -1.5858399035     -1.4032154956     2.2960512916
C     -0.9499376889     -2.5140395513     1.6814765015
C     -2.5110345365     -0.571154237     1.4850746219
C     -1.5994477862     1.4637359715     2.6487405396
C     -0.634821542     2.5170202588     2.2632940963
C     -2.4974263428     0.9004741991     1.6448502315
C     -0.7586043232     3.1265418829     1.056261537
C     1.5590150701     2.4306741381     0.4193171192
C     0.3689895464     3.1530780369     0.1248633308
C     2.9208507543     0.4643915933     -0.4427947191
C     2.2300434631     1.7542333584     -0.7013817355
C     2.3793811413     -1.8777730617     -1.1163557628
C     2.8794767652     -0.5807029966     -1.444882417
C     1.404871244     -2.2705025914     -2.1584091123
C     -0.0311210796     -3.1431875362     -0.3830559604
C     -1.2552808087     -2.8864782824     0.322888647
C     0.1209758499     -2.8020812898     -1.7539051549
C     -2.9358248064     -1.0806493971     0.2382043397
C     -2.3264257169     -2.2874647528     -0.3368046562
C     -3.265289191     -0.2000586875     -0.8813630375
C     -2.7860071052     1.7291497074     0.541393503
C     -1.972542349     2.9113961185     0.2973920499
C     -3.0991291586     1.177194824     -0.7590756738
C     -0.2322599682     3.1449010866     -1.1930900208
C     -1.6697124764     2.9710062019     -1.0584864692
C     -2.3501872938     1.90078815     -1.7690975479
C     1.708099828     1.9490720742     -2.0118281624
C     0.411474399     2.5303488733     -2.2371506302
C     2.4030002555     -0.2969393564     -2.7625989879
C     1.4915159907     -1.3484511417     -3.2059035752
C     1.837176367     0.9275081655     -3.0197773842
C     -1.702907537     1.2280355755     -2.8396530472
C     -0.3491774256     1.6538039095     -3.1810395706
C     0.3064687616     -0.6945841154     -3.7420762279
C     0.5538377797     0.7435454229     -3.7108593616
C     -1.0486333866     -2.3021323058     -2.4513302592
C     -2.2464363269     -2.1303092966     -1.7388925446
C     -2.8177268228     -0.8249844373     -2.0775507376
C     -0.9419672005     -1.1514277969     -3.3726155495
C     -1.9944623776     -0.1837380166     -3.0174070902


