56

 C     1.4594352788     0.1192138935     4.2294565778
C     0.7035500942     -1.1083387857     4.2073231508
C     1.4453531229     -2.028871188     3.4546484604
C     2.5876103624     -0.0016003198     3.2695221882
C     2.6107221004     -1.3181393604     2.8354297324
C     2.4958337228     1.0476132925     2.3011707043
C     0.6548089136     1.1568780146     3.7911429671
C     1.3708172543     1.8801163231     2.758479173
C     -0.6457637937     -0.7805428608     3.756755324
C     -0.6941092805     0.6598382329     3.4801148594
C     -1.2750468177     -1.6189282444     2.8457120748
C     0.8479287098     -2.830740932     2.4523033058
C     -0.550571755     -2.7560429508     2.2516837403
C     2.6256461566     -1.6316061882     1.4474118999
C     1.6927402371     -2.7380564057     1.2589759745
C     2.6204523986     0.7868878907     0.8937935171
C     2.6961016333     -0.6008794327     0.4432692239
C     2.0537935662     1.7785434074     -0.0362016518
C     0.630748992     2.5319875868     1.8325740507
C     1.1419925094     2.708759655     0.5071436761
C     -1.4092661437     1.1791967073     2.3749006762
C     -0.8265591024     2.32613592     1.7021700323
C     -2.1508944272     -1.0867913425     1.813009553
C     -2.2302836218     0.3015808198     1.5253049662
C     -1.0995221804     -2.9930510249     0.9510950853
C     -2.1953804857     -2.0512232861     0.7375525994
C     1.1586284184     -2.9653149897     0.0178064614
C     -0.2602555481     -3.2521564761     -0.1440823745
C     2.242204074     -0.9278313123     -0.9192840878
C     1.5804513183     -2.1716858976     -1.1132749556
C     1.9479590814     1.5151096497     -1.4814615564
C     2.0253614118     0.1254440976     -1.9257940552
C     1.2001821653     2.4506335789     -2.2750877357
C     0.035214011     3.1768735083     -0.2708633095
C     -1.1906606341     2.7204099093     0.4161588444
C     0.1313228827     3.222325907     -1.6194308717
C     -2.6167657516     0.7200901434     0.1602449987
C     -2.1878172416     2.0222650973     -0.3749518355
C     -2.5545995199     -1.662236314     -0.5312137453
C     -2.8922427296     -0.2840086694     -0.8054422301
C     -0.6360821642     -2.8451856837     -1.4715068653
C     0.5534056484     -2.3099383081     -2.1198484945
C     -1.8506068246     -2.1797251601     -1.7017456289
C     1.327868953     -0.226284141     -3.1363542143
C     0.4496232784     -1.3919242631     -3.1317294454
C     0.6572979568     2.0886741219     -3.5483664056
C     0.6919432431     0.7596458315     -3.9417224021
C     -1.091869543     3.0483011074     -2.3781480095
C     -2.1800994359     2.2689701508     -1.768421608
C     -0.7619120902     2.5246408366     -3.6163714274
C     -2.7126946815     -0.062144681     -2.2320788528
C     -1.9687906119     -1.2202983865     -2.7574838188
C     -0.8690368968     -0.9714929467     -3.6120416293
C     -0.7180165326     0.3137737312     -4.186401442
C     -2.4847353022     1.2108214543     -2.7385160609
C     -1.5854143267     1.37030865     -3.8773290954


