56

 C     1.6152058848     -0.0132874775     3.7587101133
C     0.7922968644     -1.1851988448     3.6087540144
C     1.3296712343     -2.0187024509     2.6041419786
C     2.619781978     -0.0497753656     2.7604768534
C     2.4526033471     -1.2617513056     2.0133617958
C     2.551259526     1.1708818901     1.979989443
C     0.767408157     1.0802479793     3.4200114623
C     1.3763828728     1.8925068249     2.4149689739
C     -0.6042374495     -0.7966865047     3.5154121643
C     -0.6032217958     0.6586508074     3.2626979804
C     -1.4696972542     -1.6002556358     2.8249702191
C     0.4515933095     -2.8143792782     1.7940407961
C     -0.9663051372     -2.758654169     2.0742641936
C     0.8457817238     -3.0249616654     0.4445701667
C     2.694481434     -1.2917290106     0.60587306
C     1.9729452413     -2.279250267     -0.1311063466
C     2.9528696999     1.2131140817     0.6272795524
C     3.1345851686     -0.0608156907     -0.0917131249
C     2.4602804308     2.3511819996     -0.0922316915
C     0.5609155979     2.6010404813     1.4949739672
C     1.2210407261     2.9952021902     0.3058213666
C     -1.447339862     1.2521046284     2.2889122359
C     -0.8917854936     2.3503244316     1.4735649261
C     -2.5538303853     -0.9922071303     2.0575966384
C     -2.5552494307     0.4153578723     1.7566355078
C     -1.8864944575     -2.9680006411     1.0292651342
C     -2.9017611724     -1.9168136316     1.0530048767
C     -0.1190846262     -3.2152809129     -0.6046380815
C     -1.4983692924     -3.1449300944     -0.3229153677
C     1.7307565996     -2.1230322762     -1.5350429796
C     0.3989016702     -2.6239062886     -1.8234555062
C     3.0174729878     -0.02572892     -1.5055112272
C     2.2345323285     -1.0183130609     -2.2067607526
C     2.4995350023     2.3808673156     -1.5135144121
C     2.7954806425     1.2178908621     -2.2114572494
C     0.4873992654     3.3229053105     -0.9195986391
C     1.2707616166     2.9703257926     -2.0445336034
C     -1.5701738243     2.7075097214     0.2804655349
C     -0.8895180343     3.1326549353     -0.9287878619
C     -3.1678192119     0.785263205     0.5275237107
C     -2.718008754     1.9643289617     -0.1328591428
C     -3.2218097466     -1.5332340124     -0.2797502073
C     -2.3660900176     -2.312106681     -1.1737762047
C     -3.4478490787     -0.1815871207     -0.5258522029
C     -0.4450087773     -1.902217589     -2.6655977532
C     -1.8379438748     -1.6983816216     -2.3024192251
C     1.3952251658     -0.3200225103     -3.1958895611
C     1.7557728132     1.036127118     -3.2131818699
C     0.75105184     2.0550120119     -3.0090050059
C     0.0324751533     -0.6879875022     -3.3036385401
C     -1.48756155     2.3879387279     -2.040408642
C     -2.6802806859     1.779502914     -1.5460983828
C     -3.0065923768     0.4144298662     -1.7928588766
C     -2.174935257     -0.3207794276     -2.6452942585
C     -0.6555795349     1.6948559501     -2.9811128026
C     -1.0019212007     0.3097511974     -3.2382771567


