56

 C     1.5748382954     0.0490041817     4.1884262562
C     0.7318431858     -1.1292688503     3.9571994855
C     1.4222239426     -2.021966338     3.1239416344
C     2.6189490219     -0.0062225846     3.1924748823
C     2.5656862152     -1.2569157933     2.5646211041
C     2.5247994639     1.1428277987     2.3137048018
C     0.7887241804     1.1504271728     3.8266712054
C     1.4380175013     1.9526308923     2.8035064257
C     -0.6027478456     -0.7257058925     3.5709779306
C     -0.5849556861     0.740142293     3.5690409507
C     -1.3176722696     -1.4265424543     2.5568160766
C     0.7760149304     -2.6598544577     2.0626874385
C     -0.6348872842     -2.539493639     1.889465596
C     2.5807353119     -1.4427122741     1.156428085
C     1.5906609006     -2.4316021739     0.8588418946
C     2.7450518202     1.0204550433     0.8896028619
C     2.7412940452     -0.3275477023     0.2434240895
C     2.287687006     2.0990937385     0.1221207569
C     0.6605866639     2.7402827951     1.9134860123
C     1.2719947898     3.0276896418     0.6576626659
C     -1.328942948     1.4515549093     2.6422478753
C     -0.7667270241     2.5657537083     1.9049838451
C     -2.2869088933     -0.6599996869     1.7347730328
C     -2.249037443     0.7594822595     1.7643752881
C     -2.796621217     -1.2220955673     0.5297702984
C     -1.1123487784     -2.9844153174     0.6259142299
C     -2.311079206     -2.4935859656     0.0948910734
C     1.0826750843     -2.5967757662     -0.4419697466
C     -0.2238886109     -3.1427368119     -0.5271368214
C     2.3326187061     -0.4898406489     -1.1184526565
C     1.6093771685     -1.7359635282     -1.5163019218
C     2.102917646     1.9832648199     -1.300800899
C     2.1414188991     0.7076984591     -1.95430389
C     0.4967228803     3.4408689051     -0.4319532247
C     1.0754062404     2.9031860506     -1.6550647946
C     -1.5042127304     2.6627433705     0.6685956286
C     -2.3965728153     1.5329706012     0.5602773041
C     -0.8963506572     3.1707255199     -0.4893689123
C     -3.0348394146     -0.442485693     -0.6665076615
C     -2.6951352579     0.930008169     -0.7081057877
C     -2.3032347622     -2.5551382322     -1.3543069393
C     -0.9935853432     -2.9930037063     -1.7454898784
C     -2.7696479512     -1.3108392284     -1.8283111495
C     0.9514318338     -1.8134302764     -2.7533669376
C     -0.3809757049     -2.4271224713     -2.8596767364
C     1.4074562956     0.6138351643     -3.1712094083
C     0.948114153     -0.6649187028     -3.6480945979
C     0.061031779     2.576458498     -2.5624367732
C     -1.2015319424     2.5992089025     -1.8075573727
C     -2.0916748332     1.5108290579     -1.9455205639
C     0.3278795248     1.544754541     -3.4645469932
C     -2.2334615014     -0.782689969     -3.0175010475
C     -1.1593818202     -1.4864080587     -3.6387171493
C     -0.2978913376     -0.537651163     -4.2937304125
C     -1.9064678519     0.6484881403     -3.1133927051
C     -0.7753763256     0.7825483697     -3.9731037491


