56

 C     1.2690451921     0.0144290463     4.5463825853
C     0.5028869398     -1.1165362691     4.1266699423
C     1.2732459971     -1.9825858334     3.3183800372
C     2.4881591601     -0.0225522591     3.7579940968
C     2.5358255973     -1.2593392308     3.039066087
C     2.5850364053     1.1844000635     3.008856735
C     0.525882215     1.158185032     4.0820041397
C     1.3244037233     1.9422982157     3.2397000689
C     -0.782490245     -0.6930114548     3.5871751486
C     -0.7559614705     0.7408489529     3.5285610107
C     -1.4204299808     -1.4245894319     2.5411143588
C     0.7505592526     -2.4762165104     2.0966854419
C     -0.6391050053     -2.3509852053     1.7272716243
C     2.7210239089     -1.280832755     1.6457449906
C     1.7224850178     -2.2017015903     1.072282005
C     2.7918086991     1.1661169113     1.6206075043
C     2.9448186808     -0.0710463264     0.8921819243
C     0.84080337     2.4295768456     1.9899252671
C     1.8389367565     2.109532253     1.0168463058
C     -1.3510586046     1.4263530474     2.4037990637
C     -0.5338376651     2.3114517143     1.5765225325
C     -2.4667635227     -0.713542698     1.8935620154
C     -2.3947350172     0.7237146093     1.7708531599
C     -2.9985142398     -1.2004241459     0.6861124628
C     -0.9843897192     -2.5496743929     0.3290664343
C     -2.2787720703     -2.0954753873     -0.129438855
C     1.4111271082     -2.2045478143     -0.2823684669
C     0.0553060257     -2.6009239349     -0.6814760622
C     2.6542449335     -0.0752632997     -0.5170164316
C     2.1445354195     -1.2828206104     -1.1431712599
C     1.573681272     2.1318896513     -0.3493015591
C     2.2778354088     1.1681360983     -1.1800197566
C     -0.8357832401     2.4796986106     0.1651700149
C     0.2666190638     2.6152209545     -0.7766326839
C     -2.8632779654     1.0900282832     0.4486270107
C     -3.395295923     -0.085758819     -0.1572374363
C     -2.1049913432     1.973020815     -0.3727867588
C     -2.5485211829     -1.7336278906     -1.5281407779
C     -3.2274944757     -0.4218666191     -1.5156608363
C     -0.2969681424     -2.4812426763     -2.0659982867
C     -1.6167236648     -1.9801935502     -2.4964249564
C     1.8102515849     -1.2747886404     -2.5264186246
C     0.6234959326     -1.9705918579     -2.980812292
C     1.9700363536     1.1549933943     -2.5640536217
C     1.8644501825     -0.0854888142     -3.2701057288
C     0.0055371955     2.6049678495     -2.1777928534
C     0.914087679     1.9692456205     -3.0546989183
C     -2.2849220506     1.8155713703     -1.8055299771
C     -2.8166779954     0.5668746708     -2.3977330562
C     -1.3041427223     2.2724524859     -2.6804838854
C     -1.4269141923     -1.0620231181     -3.6422719882
C     -0.0534820279     -1.1726634095     -4.0146222332
C     0.7441933137     -0.0328958649     -4.2488745701
C     0.164692679     1.2378650552     -4.1330036418
C     -2.0192233164     0.2346100886     -3.5710951212
C     -1.1945392952     1.3817287708     -3.8479912982


