56

 C     1.368859139     -0.02823462     3.5829213948
C     2.5886149828     -0.2692996587     2.965464345
C     2.5043907819     -1.6046360259     2.3451967143
C     0.5089784886     -1.2051102839     3.3628157264
C     1.1817773408     -2.149164796     2.5502328253
C     -0.7962000424     -0.7763251765     3.0651763985
C     0.5899370852     1.121815609     3.2698156693
C     -0.7926221404     0.6790968524     3.0234353851
C     1.1416078012     2.1017327135     2.4416679156
C     3.1093103845     0.6498213968     2.0011508489
C     2.4282544934     1.8707059993     1.8051585942
C     3.0535746939     -1.5175720608     1.0647102664
C     3.4991910035     -0.1293594476     0.8262063587
C     2.4239621572     -2.2399758633     0.0205867638
C     0.4592225151     -2.7713440657     1.4643203314
C     1.1881817495     -2.9470655506     0.2447871835
C     -1.6211982867     -1.5486526386     2.1904772355
C     -0.9955082411     -2.6023805301     1.3896850532
C     -2.7530562437     -0.8367095725     1.678947861
C     -1.6427456745     1.3618896488     2.1338085435
C     -2.7176591577     0.5918858804     1.583369264
C     0.2819979721     2.8242815489     1.5047629895
C     -1.1053998766     2.5107321782     1.3696288092
C     2.3456756733     2.4490172402     0.4756769831
C     1.0795862974     3.1527045371     0.3516728383
C     3.3569888126     0.4051862283     -0.4440466274
C     2.8357803435     1.7488878288     -0.6311351032
C     2.4296836355     -1.7243708866     -1.3296706475
C     2.873874554     -0.4122563284     -1.5629825132
C     0.506079117     -3.0131293829     -1.0336959709
C     1.2571976616     -2.22664912     -2.0073310727
C     -1.6437856366     -2.9371377087     0.1432489647
C     -0.8659348379     -3.0616993804     -1.0901473695
C     -3.4599528528     -1.3350790276     0.5260217289
C     -2.888131947     -2.3746083593     -0.2161602632
C     -3.3203162584     0.9251971243     0.2801177377
C     -3.7758664583     -0.2582301763     -0.3587878332
C     -1.7145343087     2.8113423394     0.1033066182
C     -2.7355767148     1.9282947676     -0.4781147327
C     0.4766538325     3.303380438     -0.9063408717
C     -0.9323530324     3.2633926976     -0.9698731323
C     2.1134480026     1.77640817     -1.901272591
C     2.1389756765     0.4320882687     -2.4640073988
C     0.9929343068     2.5768826054     -2.0670113619
C     0.5716336722     -1.4292105823     -2.9200009116
C     1.0117227772     -0.0665111381     -3.1454777325
C     -1.5870466789     -2.3416261908     -2.1556459851
C     -2.8358644369     -1.9424665525     -1.6234063842
C     -3.2795246077     -0.6002980113     -1.6910461691
C     -0.8816561929     -1.4624928983     -2.9871232162
C     -2.438187308     1.7096048933     -1.8952299319
C     -1.3378879842     2.5348934621     -2.1785515408
C     -0.164496289     2.0698904153     -2.8199341232
C     -0.1677097537     0.7458526868     -3.2966264733
C     -2.5123008277     0.3666069288     -2.4428682414
C     -1.3525791919     -0.0999964153     -3.1478831494


