56

 C     1.6777632834     -0.1041167092     4.2395571054
C     0.9024808832     -1.2325233752     4.3474561884
C     1.3005034788     -2.2080151242     3.3545455862
C     2.5679250439     -0.2767111057     3.0991289544
C     2.3379627812     -1.6102310333     2.5394535911
C     2.3271895897     0.8002976134     2.2399819894
C     0.789525295     1.0402597136     3.9734138601
C     1.2553607997     1.676038017     2.8161162924
C     -0.5195920841     -0.8752325926     4.1331428337
C     -0.5850477854     0.5639006968     3.9856631101
C     0.1038552197     -2.5920794319     2.6962614076
C     -1.0150414565     -1.6861361427     3.1026617731
C     0.1675800662     -2.9625629623     1.37663349
C     2.3197991455     -1.7858741518     1.1301129177
C     1.3674369673     -2.7189672193     0.6106733867
C     2.4194719937     0.6764473799     0.813852402
C     2.5673206117     -0.6414166915     0.2351061602
C     1.8941713159     1.7697659343     0.0137497375
C     0.3550801994     2.3449350211     1.9298131586
C     0.7934268373     2.6100584886     0.5566785035
C     -1.4541464589     1.0742539359     3.0305483142
C     -1.031259595     2.1641213269     2.1804082455
C     -1.9099872072     -1.1654386001     2.0640221332
C     -2.2384603328     0.206499951     2.1593463855
C     -0.9481724099     -2.7679315267     0.4655636681
C     -1.9375115583     -1.7793786793     0.7258057731
C     1.0093297048     -2.7516697736     -0.772338787
C     -0.4254840755     -2.9349776604     -0.8454606557
C     2.403752534     -0.7945130164     -1.199694832
C     1.6676630053     -1.9590517332     -1.7468858054
C     2.0392546404     1.6623134125     -1.3734893929
C     2.3944694916     0.3937611513     -1.9752066302
C     1.1667070763     2.3861436232     -2.3103946752
C     -0.1407240247     3.1319063159     -0.3501390163
C     0.0282646253     3.0395676454     -1.7891671386
C     -1.9418501457     2.2350008925     1.0714116266
C     -2.6144168703     0.9661298249     0.979241162
C     -1.5743926827     2.9134154582     -0.0753648969
C     -2.4978894586     -1.0455835983     -0.4416067459
C     -2.8463991073     0.3769213612     -0.2929152485
C     -1.1281092351     -2.463943073     -1.9518069825
C     -2.1961545021     -1.4912929078     -1.7506135556
C     1.0063290208     -1.8498270771     -3.0204146599
C     -0.3932044214     -2.1442917794     -3.100520013
C     1.8522264665     0.4053550308     -3.3113822219
C     1.0418467335     1.6289392381     -3.4905222622
C     1.1889650349     -0.6767622081     -3.8348165992
C     -2.1610890327     -0.5960146581     -2.9162834406
C     -1.0771839655     -1.0399748134     -3.7855056449
C     -0.2338311878     1.244305605     -4.0155243682
C     -0.142057124     -0.1719988351     -4.3006730453
C     -1.2372148406     2.7385424954     -2.3798484105
C     -2.1778565228     2.5371074567     -1.2885010089
C     -2.7597699796     1.2519499216     -1.4372622482
C     -1.399334125     1.7247044886     -3.3547574211
C     -2.3594816053     0.76387446     -2.7592540596


