56

 C     1.2431095703     0.0131230537     3.4753764918
C     2.4204912929     -0.2668166884     2.8062300161
C     2.3823077868     -1.659458077     2.3252570741
C     0.388998724     -1.1784461092     3.3357748531
C     1.0766582709     -2.1545562582     2.5187739082
C     -0.9074473305     -0.7712004464     3.0852984289
C     0.4678561193     1.1628763258     3.1794550122
C     -0.9204358312     0.7114638254     3.1839992307
C     0.9046549432     2.1068876903     2.2043792135
C     2.8489540487     0.5641897691     1.7468026185
C     2.1529290638     1.7782926213     1.4803517855
C     2.9785753724     -1.6892572709     1.0439254116
C     3.28491166     -0.3397850722     0.6468603437
C     2.4719516684     -2.613432842     0.0997137045
C     0.3631565066     -2.8257241878     1.4424533953
C     1.1420588233     -3.2163407126     0.3256530799
C     -1.7299382256     -1.4601839868     2.1037273593
C     -1.0890453066     -2.5192514726     1.2627282593
C     -2.8167826526     -0.71815398     1.6021255782
C     -1.8917672216     1.4210929922     2.5404731425
C     -2.9610858125     0.6971207946     1.9127411867
C     -0.1391310477     2.9145103101     1.5144780607
C     -1.5159347379     2.5618120618     1.6990839355
C     0.1827665261     3.5325956042     0.2599890778
C     2.3084881932     2.2855120878     0.1379438709
C     1.4710383007     3.2619170162     -0.3725823602
C     3.1372866744     0.0396326564     -0.7144066869
C     2.7072752778     1.3691523527     -0.9650780026
C     2.5601256008     -2.2874385131     -1.2616344516
C     2.7917296874     -0.9536752092     -1.6952321101
C     0.5299252236     -3.4006171196     -0.9835800981
C     1.3940468476     -2.8156962143     -1.9555729474
C     -1.6729051792     -2.7949172339     0.0123053643
C     -0.8492139129     -3.2204689632     -1.1336983162
C     -3.2575192624     -0.889834118     0.2320028671
C     -2.7380498441     -1.9393593635     -0.5188943776
C     -3.2618541535     1.3680793999     0.7208238045
C     -2.4573482582     2.556461605     0.5927866604
C     -3.4080572722     0.416614127     -0.360716194
C     -0.7798216691     3.5718235684     -0.7898856689
C     -2.0136258166     2.9148582105     -0.6821886185
C     1.2218057473     2.9117673992     -1.7643177089
C     1.9016327493     1.6815401151     -2.0893465752
C     -0.1236757979     3.0459244357     -1.9946727114
C     1.773548952     -0.6557013279     -2.7038210605
C     0.9375909795     -1.8449080273     -2.8730797176
C     1.2263154433     0.640799054     -2.8292951547
C     -1.3111859113     -2.5130629292     -2.2761471588
C     -2.4710408582     -1.7188715553     -1.8947916619
C     -0.4523177042     -1.7015193245     -3.0526790243
C     -2.8192903943     0.6988464576     -1.6355287099
C     -2.1283328358     1.9375991971     -1.806392361
C     -0.912799042     1.9836889331     -2.5518173871
C     -0.2532224086     0.7853897934     -3.0540050531
C     -2.3374747521     -0.4159980571     -2.4117123939
C     -1.0508868147     -0.3688963871     -3.1204372041


