56

 C     1.1008221382     -0.0325098735     4.5393141677
C     0.4051308442     -1.1314291069     3.9852260587
C     1.2962472699     -1.9769992925     3.2625403678
C     2.4255438763     -0.0475561935     3.9125950763
C     2.5660720798     -1.246620243     3.1601253794
C     2.5953912292     1.1832462678     3.2235080648
C     0.4247978013     1.1392203428     4.0299920273
C     1.3380655917     1.9671118324     3.3706967298
C     -0.7923900948     -0.6789842556     3.2832939316
C     -0.7923509797     0.7597741972     3.302964661
C     -1.2505609478     -1.3443800994     2.1284985287
C     0.9454655687     -2.4663819186     1.9923908101
C     -0.3767728885     -2.3112489545     1.4621468792
C     2.9229832346     -1.2227489848     1.7831884286
C     2.0297716295     -2.1337728101     1.0785707975
C     2.9649148834     1.2460947791     1.8635598536
C     3.2295679378     0.0333183815     1.1186097349
C     1.0150536518     2.5407600967     2.1214529063
C     2.0899078717     2.2309719258     1.2099990113
C     -1.236045555     1.488983301     2.1654859146
C     -0.3291393861     2.4866652564     1.6019944868
C     -2.1842811719     -0.6233574782     1.2980095946
C     -2.1568843442     0.8182924306     1.2598206078
C     -2.707237304     -1.3517902432     0.191354105
C     -0.5899240559     -2.6104644064     0.0583781143
C     -1.8729066192     -2.3773901632     -0.4630246811
C     1.8229839879     -2.0750822737     -0.3137950458
C     0.5479607168     -2.5740781301     -0.8708815937
C     3.0265612343     0.0745741915     -0.281289501
C     2.5205121544     -1.0501891795     -1.0079443396
C     1.8856262747     2.2607890422     -0.1937757289
C     2.501797535     1.2428231224     -0.9733447966
C     -0.4736201893     2.7857920511     0.2330876639
C     0.6324705516     2.7676967294     -0.6723978616
C     -2.5498530039     1.4582547069     0.0032423012
C     -1.6626300527     2.4395010813     -0.5175955089
C     -3.463563884     -0.7316565489     -0.788686641
C     -3.3349040879     0.7113134141     -0.9572061159
C     -2.1697212822     -2.3453863913     -1.8753650335
C     -3.2550291631     -1.3976539106     -2.0654361964
C     0.2776281409     -2.3737145168     -2.2305784707
C     -1.0787261877     -2.3302799107     -2.7762657125
C     1.9967141167     -0.5838180709     -2.2705744226
C     1.9340707043     0.8522666109     -2.2421131293
C     1.0541836317     -1.3489595098     -2.9542348689
C     0.1211003235     2.4603936909     -1.9851807387
C     -1.3267369927     2.4611877813     -1.9199180304
C     0.7946267456     1.5065143162     -2.8180494535
C     -3.1813888794     0.9266159901     -2.3379934051
C     -3.1601198138     -0.3984331693     -3.0365172471
C     -2.0880554009     1.709033925     -2.8367382523
C     -1.0971164703     -1.3806450095     -3.8715221384
C     0.1799053123     -0.6922804493     -3.8406823495
C     -0.0133992896     0.7407756279     -3.7573383706
C     -2.0881668459     -0.38746129     -3.9468676204
C     -1.4143521774     0.9333012511     -3.8347289688


