56

 C     1.5111778957     -0.0185394622     4.2040206339
C     0.7059304894     -1.2201269368     4.0414126582
C     1.4112955662     -2.1412350569     3.2671679054
C     2.6279959259     -0.1404630968     3.2912256378
C     2.6189754889     -1.4420473578     2.7633215071
C     2.5842376397     0.9543954556     2.3344741443
C     0.7124389274     1.0204192614     3.6935936403
C     1.4116876316     1.7366532362     2.6467676737
C     -0.6482438062     -0.8462952849     3.6220139682
C     -0.6500370632     0.5955675902     3.4226370095
C     -1.3113031273     -1.6457864356     2.6925912429
C     0.7949918267     -2.780858795     2.142485232
C     -0.5921407996     -2.6745094699     1.9490761373
C     2.7125816339     -1.683300846     1.3670630857
C     1.6658911856     -2.6132726165     0.9860601146
C     2.9300247526     0.760490928     0.9644061215
C     3.0402429924     -0.6152758394     0.4564207375
C     2.4375526129     1.7457048892     0.0591394693
C     0.6785231077     2.4184693646     1.6557102721
C     1.3572580691     2.6198714595     0.41767217
C     -1.3994776498     1.2031793736     2.3897099744
C     -0.7898587027     2.312714895     1.6338062934
C     -2.2443538755     -1.0423408983     1.7769232108
C     -2.385030878     0.3678945009     1.6874053151
C     -1.1361708588     -2.6972954072     0.6186182905
C     -2.2713507497     -1.8248545035     0.5587379671
C     1.1641853413     -2.6712367452     -0.3357886444
C     -0.2863461932     -2.8443424699     -0.5403501556
C     2.7487525714     -0.8518707288     -0.9041741489
C     1.8929508298     -1.9447759441     -1.3246165538
C     2.3599903945     1.511786896     -1.3699404638
C     2.5508991743     0.2182184786     -1.8559807596
C     0.6482188561     2.9841831658     -0.7844894855
C     1.3042896689     2.340163385     -1.9243083228
C     -1.4476828256     2.7593849748     0.4740623381
C     -0.7256890498     3.1355407455     -0.7475804525
C     -2.9933581723     0.8694628822     0.496606498
C     -2.6638791188     2.1464026123     0.0373541161
C     -2.7583378391     -1.3079625676     -0.674931767
C     -3.2587182518     0.0177490826     -0.6859828157
C     -0.8360086436     -2.5023424583     -1.7860338323
C     -2.1523905186     -1.8249640114     -1.8860782414
C     1.307862447     -1.6182387223     -2.5933901106
C     1.727925068     -0.2667454304     -2.9529936863
C     -0.0107743324     -2.0252962794     -2.8746736383
C     0.5721017886     1.9157642205     -3.0214049686
C     0.839768949     0.6005938999     -3.60071888
C     -1.5219973097     2.7155669429     -1.9054131782
C     -2.7039241915     2.1299405382     -1.417305561
C     -3.1386269095     0.8399827508     -1.8687944176
C     -0.8868493813     2.1382334325     -3.0537619269
C     -2.1676062682     -1.0671625061     -3.0552437021
C     -0.8360510343     -1.1855834679     -3.6937143622
C     -0.4299423438     0.0831404478     -4.0484925987
C     -2.5714878059     0.3139677231     -3.0578025799
C     -1.5001131842     1.0412802358     -3.6865181312


