56

 C     1.4943876913     -0.0507646796     3.8844495598
C     0.6999945256     -1.2202302405     3.7935655978
C     1.2997510034     -2.1432474752     2.8514355152
C     2.4453675081     -0.1186471281     2.8321909924
C     2.3275129341     -1.374920698     2.127521463
C     2.3949915386     1.0815780297     2.069383719
C     0.6420814815     1.0749314671     3.563296399
C     1.2537659108     1.8547252911     2.5434042175
C     -0.686270981     -0.8459896464     3.6269985933
C     -0.6872754953     0.6074108052     3.3387199506
C     -1.4982747069     -1.693615059     2.8873237595
C     0.4519610225     -2.9927910185     2.1547443335
C     -0.9595318127     -2.900557279     2.3564073154
C     0.6890720623     -3.2400804588     0.7234218011
C     2.4231448794     -1.4227769058     0.7111815469
C     1.6693087723     -2.4881327151     0.0169292748
C     2.7062320498     1.0693245131     0.6953085052
C     2.7588604853     -0.1828266676     -0.0355223689
C     2.3098020722     2.272674664     0.0125759033
C     0.4544583254     2.5865654287     1.6274257245
C     1.1299957217     3.0106725529     0.4574511241
C     -1.5021055881     1.1630590442     2.2981644408
C     -0.9797558758     2.3049010594     1.5482422351
C     -2.4112009276     -1.1326101629     1.8727401744
C     -2.4645384028     0.259007694     1.6296748772
C     -1.5698847982     -3.0967674049     1.0643772226
C     -0.6056181053     -3.4888239701     0.1049572549
C     -2.5075376483     -2.0638266231     0.7685088864
C     -0.8312605049     -3.1314486349     -1.2332978364
C     1.4759480104     -2.3694965855     -1.4068757518
C     0.3080335156     -2.8497754979     -2.0369828457
C     2.5807855178     -0.1144338183     -1.4894212221
C     1.939503549     -1.1989743229     -2.1453912512
C     2.3811830129     2.3535460066     -1.3743744172
C     2.4866026217     1.1782824261     -2.1567892292
C     0.4373182614     3.4955618535     -0.7206727588
C     1.2637378938     3.1963359991     -1.8602782257
C     -1.646142059     2.7131806957     0.3418122031
C     -0.9397233285     3.3031524489     -0.8043489234
C     -2.9788292109     0.637762906     0.3453362284
C     -2.6961441658     1.9336146983     -0.1701747442
C     -2.6682560037     -1.6149096692     -0.5975659773
C     -1.8951085285     -2.2412321719     -1.6249385047
C     -3.038959363     -0.2592888668     -0.7662064118
C     -0.0728754205     -1.9050739261     -3.0547256866
C     0.9687452031     -0.955975122     -3.1904508718
C     -1.376707823     -1.4416333715     -2.7421281704
C     1.5327933834     1.3710376337     -3.236645125
C     0.7385410973     2.5784487198     -2.9692009341
C     0.6493640427     0.3629460701     -3.5933919021
C     -1.5101027761     2.7063339224     -2.0285245245
C     -2.5854134733     1.867192282     -1.6079395981
C     -2.6633653843     0.50815586     -1.9700295957
C     -1.7273428519     -0.0373007863     -2.9171090598
C     -0.6659686702     2.2415360635     -3.0537291002
C     -0.745050218     0.8442127707     -3.4608337922


