56

 C     1.547634523     -0.0585262249     4.2152553705
C     0.771904249     -1.2810499908     4.0474628569
C     1.5970414794     -2.2575405555     3.4314234329
C     2.7054397304     -0.1928072952     3.3201207984
C     2.73531146     -1.4912793874     2.8365996249
C     2.6611021923     0.8517062885     2.325160034
C     0.7848067229     0.9557664646     3.6507835512
C     1.5208224405     1.6741706032     2.6396026966
C     -0.5116717605     -0.9834994333     3.4573428828
C     -0.5354270055     0.4711283529     3.2369114094
C     -1.0673492476     -1.8309160456     2.449047592
C     1.0781202663     -3.0598480774     2.4333432811
C     -0.2711211677     -2.950690871     1.9977035976
C     2.8111710156     -1.8183852323     1.412161319
C     1.914423794     -2.8951227154     1.2179604015
C     2.939748659     0.5897777412     0.9254433926
C     2.8780871575     -0.7980111764     0.4092720632
C     2.5672779808     1.6212640265     0.0716176917
C     0.8395270402     2.3974730005     1.6505269752
C     1.6337195903     2.6715649121     0.4969005237
C     -1.2084199733     1.0730091985     2.1747238415
C     -0.5920374782     2.2216632875     1.45715492
C     -2.0185815917     -1.222959234     1.5045266682
C     -2.178096972     0.2351184075     1.4489880118
C     -2.3167864373     -1.9279885136     0.3098103764
C     -0.252060433     -3.2073467461     0.5651168226
C     1.1165235964     -2.9968761601     0.0762893846
C     -1.2923951416     -2.820267829     -0.2132507608
C     2.2473850846     -1.0276791621     -0.8933149235
C     1.3272405221     -2.145139127     -1.0423517365
C     2.3810489617     1.4243088847     -1.3582297901
C     2.1137605861     0.0964353858     -1.8417554959
C     1.0536253789     3.1892580606     -0.645478782
C     1.618249132     2.5120460722     -1.8305337783
C     -1.1816689316     2.6924416736     0.2290099717
C     -0.3415573365     3.2523825283     -0.8153976669
C     -2.8533606157     0.8038111675     0.3628642033
C     -2.4152667884     2.0912787784     -0.2176663806
C     -2.9474129943     -1.3195219156     -0.8197276352
C     -3.3696865885     0.0073106457     -0.7234887854
C     -1.0842267544     -2.4708561794     -1.6016752854
C     0.2274624542     -2.0806522745     -2.0225508087
C     -2.2535743136     -1.7591127479     -2.0492306503
C     1.2331508925     0.0083825437     -2.9549093785
C     0.2960526824     -1.1278728995     -3.0752104893
C     0.6273207606     2.392778125     -2.8065089027
C     -0.6140810555     2.9831607302     -2.2409615824
C     0.561193292     1.1672464213     -3.5103034681
C     -2.7858123611     2.1280887181     -1.5675378738
C     -3.3561586673     0.8279100439     -1.9115075445
C     -1.841754017     2.4756927719     -2.6163106517
C     -2.1703208638     -0.9201251679     -3.1632291087
C     -0.8732575369     -0.6925255862     -3.728788039
C     -0.7286898868     0.7441158482     -3.9823988873
C     -2.8328902186     0.3796403913     -3.114966596
C     -1.8954854763     1.3976695152     -3.6058387135


