56

 C     1.4083925107     0.0361578026     4.0802796376
C     0.6410995633     -1.1527823343     3.7693315669
C     1.4342894371     -2.0460356649     3.0333583447
C     2.6121137745     -0.0285737547     3.272327415
C     2.6566004224     -1.2936827217     2.6571597651
C     2.6519357011     1.0921217693     2.3747508889
C     0.6600443402     1.1034282725     3.546206181
C     1.4301989128     1.8608506824     2.6115727004
C     -0.6483555158     -0.7968884076     3.2162433878
C     -0.640734864     0.645981262     3.0789428085
C     -1.249793277     -1.5728436254     2.1924852109
C     0.929934599     -2.6786131091     1.8791661619
C     -0.4577164623     -2.5929997412     1.521682548
C     2.8761521501     -1.474200159     1.2599874315
C     1.9142770792     -2.486644481     0.8209205242
C     3.1167171232     0.9571419243     1.0255197213
C     3.1774405774     -0.3767890794     0.404360638
C     2.8009895382     2.0576074866     0.1922087988
C     0.7934788498     2.5702377715     1.5620545947
C     1.6592918883     2.9213607905     0.4894542284
C     -1.3038020984     1.287067147     2.0059792211
C     -0.6264606735     2.3573133374     1.2818955664
C     -2.3520515085     -0.9365889478     1.4726843798
C     -2.379830792     0.5216236143     1.3852340943
C     -2.9652011044     -1.6875468743     0.4348073348
C     -0.8223263028     -2.9374495888     0.150698621
C     -2.1590756964     -2.6578623005     -0.2803857906
C     1.5276854847     -2.5602078688     -0.4979737474
C     0.1827796672     -2.9532105683     -0.8485344378
C     2.7958487723     -0.4866293158     -1.0216064353
C     1.9872273119     -1.577430041     -1.4343891204
C     2.88037703     1.9722535251     -1.2425910669
C     2.6796902458     0.6821587011     -1.8295762503
C     1.1520974248     3.3610416293     -0.770265946
C     2.0197013402     2.9290434172     -1.8519517195
C     -1.1002026906     2.6690464174     -0.0547993644
C     -0.2027089567     3.1264880765     -1.0761061048
C     -3.027964406     1.1008854685     0.2555983861
C     -2.2655316641     2.0328160622     -0.5296170893
C     -3.8351259438     -1.0608746957     -0.5402478178
C     -3.8233738035     0.3263939903     -0.6373735391
C     -2.4711332409     -2.5134203781     -1.6784768142
C     -3.5818133192     -1.6379905934     -1.8565490048
C     -0.0969565213     -2.380755868     -2.1498508502
C     0.9399195491     -1.4427568618     -2.4470100957
C     -1.4047529223     -2.1454752384     -2.569848962
C     1.5945837645     0.8371192612     -2.8017965932
C     1.1810472336     2.2158894454     -2.7313500179
C     -0.2054982994     2.4403951694     -2.3860579283
C     0.6316098391     -0.1786042216     -3.0215093184
C     -2.407698006     1.6179017294     -1.9363467756
C     -3.4085713474     0.6578662037     -2.0214274314
C     -3.1411847492     -0.5745951589     -2.6879577106
C     -1.763970852     -0.8462784494     -3.1363196647
C     -1.1940108343     1.5174024937     -2.7243078536
C     -0.7996782485     0.1801365984     -3.2106827169


