56

 C     1.3505656461     0.3558972837     3.951306219
C     2.4608477036     -0.1039039606     3.2362626661
C     2.1799727341     -1.4851593936     2.8675015876
C     0.3046712118     -0.7207464529     3.950851031
C     0.7926623361     -1.802588728     3.1994772503
C     -0.9692710778     -0.1300925624     3.6632323972
C     0.7163399803     1.5078736519     3.5265458463
C     -0.74376311     1.2859992831     3.4938027246
C     1.0929679374     2.1631569723     2.3041394284
C     2.9083854033     0.547889556     2.0419810635
C     2.1877921463     1.6869040931     1.505728072
C     2.7453401654     -1.7800960079     1.6263399729
C     3.3210161475     -0.5170380488     1.1288449658
C     1.9954406527     -2.5580682156     0.713513401
C     -0.0389603637     -2.4204773955     2.1694396194
C     0.614236414     -2.8906243271     0.9782734491
C     -1.824793497     -0.7872394811     2.7550075113
C     -1.3806254769     -1.957802352     2.0444412741
C     -2.6242547929     -0.0135234334     1.8274473189
C     -1.2656030535     1.9519519668     2.3996976004
C     -0.1256495448     2.5551700986     1.6594496739
C     -2.3557681923     1.3752768518     1.6451701156
C     -0.2187224422     2.7773758063     0.2774654057
C     2.1090372643     1.8694524706     0.0464395438
C     0.9263310771     2.4729099302     -0.5896997958
C     3.3699501109     -0.2829788963     -0.2100739387
C     2.9081686439     0.9950736733     -0.7546860812
C     2.1764972809     -2.3971688057     -0.7101084814
C     2.9677226256     -1.3328913473     -1.1767385707
C     -0.0552172812     -2.90441986     -0.2937636374
C     0.913615408     -2.6604461212     -1.35798777
C     -2.0572380839     -1.9692147115     0.7543140226
C     -2.9040993498     -0.8210707385     0.6561622104
C     -1.4219281989     -2.4859204222     -0.4200495545
C     -3.2676336476     -0.2467399294     -0.6023154711
C     -2.5911661426     1.9221917896     0.3718384756
C     -1.5677221295     2.7477107473     -0.2510681962
C     -3.2759344019     1.1976677249     -0.6833580318
C     -1.7881523912     2.6979419879     -1.6295074635
C     -2.9355455316     1.8438999239     -1.9106992473
C     0.6497535237     2.2534912524     -2.013961567
C     -0.7059532308     2.4037394628     -2.5214019698
C     2.5652948846     0.7378472243     -2.0951249451
C     2.6018216431     -0.6862704603     -2.3696449485
C     1.4495448922     1.3171860414     -2.7412073351
C     0.5252464056     -2.0027254279     -2.5540174191
C     1.4164441802     -0.9948364564     -3.0892333807
C     0.8470875783     0.2640803492     -3.5505793075
C     -1.8603179479     -1.9995473569     -1.6767957012
C     -2.8784077324     -0.987289386     -1.7859363905
C     -0.9028655668     -1.8256468387     -2.7823215857
C     -2.5942622454     1.0928037945     -3.0382653888
C     -1.2227608051     1.4996579125     -3.4949611945
C     -0.5122278917     0.3381475558     -3.8709613938
C     -2.6310936949     -0.29759211     -3.0244820647
C     -1.3768162126     -0.7991781575     -3.595721985


