56

 C     1.2159746268     -0.011131797     3.9190681511
C     2.3308993195     -0.2290107256     3.1369589419
C     2.1394640063     -1.4972015834     2.4333275508
C     0.3292334493     -1.2124063578     3.7735788418
C     0.8483330517     -2.0441893823     2.718439538
C     -0.9540626089     -0.7513421414     3.6967536813
C     0.4044089975     1.1654952823     3.7463194736
C     -0.960461962     0.731850636     3.7580348425
C     0.800082839     2.0978465666     2.7406429546
C     2.7650970927     0.7161778312     2.1395830932
C     2.0229565573     1.8837764433     1.9677094223
C     2.657533014     -1.3982135842     1.1369564098
C     3.1243561562     -0.0389507417     0.9389370543
C     2.0375901217     -2.1308442573     0.0800277417
C     0.0184439843     -2.4583453702     1.6179386002
C     0.6856061939     -2.6880782432     0.3206095592
C     -1.8390961561     -1.176115997     2.6533826278
C     -1.4022033613     -2.089052001     1.6323935636
C     -1.8936220842     1.1669711867     2.8193633891
C     -2.6216413769     -0.0220433989     2.3064127406
C     -0.1741247646     2.6201113506     1.8277315294
C     -1.5409326888     2.2018365087     1.8559341754
C     1.8120428959     2.3944077339     0.6184621165
C     0.4796570828     2.8854022812     0.5397096403
C     3.1069492112     0.5170571638     -0.3516688077
C     2.4501833563     1.8255416925     -0.5287096537
C     2.4448649661     -1.7402631679     -1.2119314943
C     3.0437631713     -0.4432344019     -1.4248639482
C     1.6464894895     -2.0805400857     -2.3922410451
C     -0.1172670612     -2.9175285381     -0.8111514847
C     0.3865191733     -2.6755629888     -2.188305213
C     -2.1497003613     -2.0683456611     0.3761288395
C     -1.5350424389     -2.6453132442     -0.7814931608
C     -3.2652128211     0.0429249386     1.0895126872
C     -3.1187496364     -1.0431850866     0.1409860136
C     -2.2799359593     2.2256326634     0.6279271895
C     -3.3239578928     1.2901636276     0.3703702603
C     -0.2417225399     2.8484047253     -0.6935380618
C     -1.6409322231     2.5476994505     -0.6490833482
C     1.8414310148     2.0913756859     -1.7912464294
C     0.4775515613     2.5089757426     -1.865608372
C     2.6546840441     -0.0246401748     -2.7318142918
C     1.7802657336     -1.0463698018     -3.342540122
C     2.0696430399     1.2130953115     -2.9166703767
C     -0.1652751685     1.7474278552     -2.9645515453
C     0.6357015281     -0.3940576346     -3.9061890843
C     0.8182119099     1.0233144015     -3.6443164576
C     -0.6937165587     -2.1826409226     -2.9415854671
C     -1.872910948     -2.1692162321     -2.0812086624
C     -0.6347763301     -0.9615923418     -3.6775052745
C     -3.2426652233     -0.4323411676     -1.1784017955
C     -3.2925374065     0.9781152921     -1.0141516294
C     -2.2544172025     1.7480930367     -1.6565614073
C     -1.4995447706     1.2091901995     -2.7770152277
C     -2.572896551     -0.977052846     -2.2884909048
C     -1.7405315225     -0.1320777103     -3.1723573539


