56

 C     1.0890278474     0.0282066193     4.0433792531
C     2.2502781766     -0.2530194703     3.3720975096
C     2.1941970555     -1.636169277     2.8550532898
C     0.2281327455     -1.1872022546     3.9167354661
C     0.8652998542     -2.1258849375     3.0226153597
C     -1.030400905     -0.7460838445     3.6290583015
C     0.290551492     1.1902988191     3.6807878814
C     -1.0620256217     0.7398555672     3.5737449678
C     0.7530362584     2.039165688     2.6599978596
C     2.7396700461     0.58736593     2.2972932274
C     2.0170894668     1.745119963     1.9879142149
C     2.8311381455     -1.6636441762     1.6121860557
C     3.1865378814     -0.2887998358     1.2195101363
C     2.3060258043     -2.5288652899     0.630805117
C     0.1406122596     -2.6200039567     1.8482269509
C     0.9152563735     -2.9461912906     0.7161067875
C     -1.8019002798     -1.2498784787     2.5206963567
C     -1.2434776963     -2.1629256648     1.5840054011
C     -1.9122053846     1.123026369     2.5389522501
C     -2.5567168369     -0.1071992773     2.0594786081
C     -0.1588830842     2.5256201099     1.6365988969
C     -1.5040422905     2.0913158949     1.535036813
C     1.8941336867     2.1496741948     0.6078816104
C     0.5908987806     2.7310231663     0.4130194824
C     3.1275996237     0.1124753998     -0.1371595307
C     2.5265040588     1.4244020945     -0.4416932848
C     2.5756639989     -2.2278587338     -0.7112028527
C     2.9741441169     -0.9410270987     -1.1242437679
C     0.3739914527     -2.9154877161     -0.6589534857
C     1.4287522448     -2.6086130108     -1.5283772925
C     -1.7768596454     -2.1247137539     0.198851003
C     -0.9433349662     -2.4456753527     -0.9589215536
C     -3.1188072356     -0.1222680128     0.8343352756
C     -2.8860874254     -1.2633860631     -0.0422573192
C     -2.1683071006     2.0908548156     0.2165030004
C     -3.1752187948     1.091470824     0.0191469339
C     -0.0186847876     2.8180704791     -0.8572205615
C     -1.4805126239     2.615572143     -0.9786322946
C     2.0183906951     1.6809715102     -1.7391770362
C     0.852432991     2.4931680952     -1.9566998561
C     2.315107139     -0.6787090144     -2.3946888917
C     1.2834407453     -1.6970230349     -2.6000066439
C     2.0197350461     0.622943936     -2.7627785483
C     -1.1664195264     -1.8122410743     -2.2790359243
C     -0.0093405403     -1.3787334076     -3.095424816
C     -3.1955529975     -0.8279432571     -1.340020173
C     -3.489719134     0.6384878175     -1.2791221787
C     -2.3960487718     -1.0837290519     -2.4607709884
C     -1.9899619996     2.2649171326     -2.2802034017
C     -2.9863007825     1.2399845134     -2.3990820773
C     -2.4297574967     0.1499848384     -3.2593347399
C     0.2733610278     2.0987245039     -3.2099986469
C     0.9257260097     0.8389165163     -3.632578203
C     -0.0822312523     -0.1259308992     -3.8347873445
C     -1.0767731077     2.0124597679     -3.3825118576
C     -1.3271647066     0.6251305362     -3.8851347693


