56

 C     1.3871052235     0.186313272     3.7655214055
C     2.5476483557     0.0113133124     3.0087998434
C     2.4687509197     -1.3166921757     2.3938587902
C     0.5095207747     -0.9971983886     3.5523307653
C     1.1703311748     -1.8722338268     2.6514181589
C     -0.8029619054     -0.547671891     3.2790993465
C     0.6129883661     1.3262919767     3.5735121016
C     -0.7916352223     0.8861037512     3.3740329427
C     0.9257760734     2.2673047322     2.5614724079
C     2.9083823684     0.941179675     1.9862930103
C     2.0806232679     2.0920767793     1.7091913182
C     2.9721364313     -1.2491047632     1.0903627924
C     3.3944597547     0.1417852646     0.868883707
C     2.350263813     -2.0170569144     0.0426060674
C     0.4320659515     -2.5106720885     1.6005828979
C     1.1134115124     -2.7318750932     0.3323805455
C     -1.5960547263     -1.176771651     2.2726015494
C     -1.0269806096     -2.3399272283     1.6021706473
C     -2.5600936355     -0.3423708658     1.5429592877
C     -1.3907597586     1.6655976823     2.4028323191
C     -0.3648123251     2.632610445     1.9604548553
C     -2.3344704968     1.0948034393     1.4713790739
C     -0.4407154488     3.1603643832     0.7131911636
C     1.9766161581     2.570933697     0.3053104128
C     0.7632389767     3.2419464978     -0.1147070837
C     3.3705021609     0.6417867497     -0.4140049003
C     2.6905200358     1.8996894624     -0.7245442105
C     2.5672528681     -1.5379191962     -1.2973006327
C     3.1260222298     -0.2670977165     -1.4897207502
C     1.5423446648     -1.6834120913     -2.3405280676
C     0.3034548252     -3.1233454542     -0.7966553861
C     0.4727409482     -2.4879107134     -2.1198881136
C     -1.7599413011     -2.8884078034     0.5068449208
C     -1.050991856     -3.3565104484     -0.6520872288
C     -3.2815244363     -0.9582391435     0.4672559949
C     -2.9494493151     -2.274009447     0.0519542467
C     -3.6064952602     -0.2086794542     -0.7131725207
C     -2.5177220105     1.7925460345     0.2047646396
C     -1.5945873115     2.8419700669     -0.1395299593
C     -3.0979413733     1.0804383377     -0.9045227016
C     0.3071648104     3.1648057825     -1.4435991306
C     -1.1304663276     2.9425361689     -1.4581330068
C     2.1396547681     1.7596169271     -2.0784672411
C     2.3768607325     0.4336626345     -2.5212682732
C     1.3570667616     -0.3992563679     -3.0174281482
C     0.9003775174     2.3161489863     -2.4122964753
C     -2.4702814093     1.0972589185     -2.2340886044
C     -1.4255675544     1.9657834116     -2.4590702856
C     0.0205066162     0.106605128     -3.2554785204
C     -0.1570997311     1.496862636     -3.0178476014
C     -0.8527918986     -2.1694549777     -2.6692853141
C     -1.772787816     -2.8812329723     -1.8602457608
C     -2.9637590987     -2.300130322     -1.4364734953
C     -3.3034535522     -1.0246200288     -1.8923175142
C     -1.132504986     -0.8209364121     -3.1097603501
C     -2.4119386847     -0.2755987072     -2.7196439552


