56

 C     1.6221548777     -0.2666327463     4.3477233664
C     0.7722003411     -1.4188574327     4.3584089362
C     1.2359314804     -2.3012151312     3.335546291
C     2.5929942268     -0.4615370677     3.3184860771
C     2.3974419469     -1.7436767009     2.6774549156
C     2.6669722956     0.7175036803     2.4722760379
C     0.8377212333     0.8377569751     3.8548410719
C     1.5152210062     1.5576903278     2.7955384118
C     -0.5188806616     -1.0012968178     3.8718959514
C     -0.5239508326     0.4202721629     3.6416434385
C     0.1238460861     -2.7300384461     2.5042475154
C     -1.0160420171     -1.8737701924     2.8273605953
C     0.3510737771     -3.0131304173     1.1792000907
C     2.559810576     -1.8766992119     1.2487649847
C     1.6210928008     -2.6860573254     0.5254869946
C     2.9927812821     0.5680519335     1.1459894131
C     3.0494870639     -0.7496809703     0.5075295702
C     2.4863158938     1.5080983751     0.1719130591
C     0.7738340856     2.18235149     1.7796839731
C     1.3869121413     2.3433235806     0.4405163571
C     -1.2635479975     0.9559252142     2.5718828763
C     -0.685948016     2.0779855299     1.8232487407
C     -1.8407262184     -1.3620293652     1.8125534962
C     -2.1716360271     0.0639408476     1.8419266404
C     -0.7051912627     -2.8184092635     0.2120359818
C     -1.8253684351     -2.0113448347     0.4809006922
C     1.3474210646     -2.4878332249     -0.8594290659
C     -0.0652207966     -2.7751091479     -1.0896109474
C     2.7670359171     -0.5633588436     -0.877275791
C     2.6223681602     0.8682706796     -1.1233985392
C     1.9465006765     -1.4511016519     -1.6431609857
C     1.9663635614     1.3393379722     -2.2144032653
C     0.5920746792     2.8085758835     -0.706708455
C     1.0287138667     2.4558481662     -2.0519805209
C     -1.41300886     2.5565712234     0.728838118
C     -0.7890230294     3.0297895678     -0.5252238393
C     -2.8532288145     0.6041638099     0.7469447952
C     -2.643690791     1.953646773     0.3764967747
C     -2.5147023167     -1.4030683443     -0.6676503685
C     -3.1322088408     -0.1467068951     -0.4957653266
C     -0.7186212158     -2.3005113606     -2.1806483456
C     -2.0607147495     -1.732277548     -2.0131407499
C     1.2645914445     -0.9593465856     -2.8578474325
C     1.4414721258     0.4263142622     -3.2292921886
C     -0.0103053522     -1.5417605752     -3.2110406637
C     0.1319681379     2.3726336381     -3.119746882
C     0.4248806154     1.1488871604     -3.9039425513
C     -1.7368562435     2.8082922866     -1.6044564243
C     -2.8217424435     2.0717689031     -1.0490183431
C     -3.2100068173     0.8112429154     -1.5859359135
C     -1.2860363401     2.4610840057     -2.913840775
C     -2.2554397956     -0.8638109538     -3.0897326971
C     -1.00676403     -0.7918947332     -3.8859442182
C     -0.8030228086     0.5533015083     -4.2117871029
C     -2.756787613     0.4672876917     -2.8953506555
C     -1.8905090277     1.3612392334     -3.5930031187


