56

 C     1.3603144447     0.0463979674     4.158926802
C     0.5526610878     -1.1489078835     3.8997263798
C     1.2625958441     -2.039722057     3.1045042842
C     2.5059251041     -0.0472149448     3.2965275713
C     2.5330624949     -1.3436199316     2.7187177356
C     2.5496340234     1.0810798406     2.3885650399
C     0.5892304266     1.1032948553     3.636910826
C     1.3257771253     1.8040146431     2.5997879231
C     -0.7615022357     -0.7726135786     3.4481541074
C     -0.7244624211     0.670478894     3.2666175923
C     -1.4430137159     -1.5458373945     2.480790092
C     0.6932178109     -2.5753187301     1.9145457504
C     -0.7000838943     -2.4650933001     1.614052087
C     2.720334279     -1.5214135858     1.3496070885
C     1.6423843882     -2.3960189868     0.8476145222
C     3.0555072253     0.9303518049     1.0532377995
C     3.1905985949     -0.438908064     0.5129282651
C     2.6852753807     1.9459845875     0.1493409568
C     0.6569480582     2.4630105423     1.5227816436
C     1.5028468979     2.7653763966     0.4267645667
C     -1.447631469     1.3070335519     2.1933480459
C     -0.7777353203     2.2576644806     1.289697639
C     -2.5624059171     -0.8730118654     1.9135463407
C     -2.5392401252     0.5780471896     1.7179407596
C     -3.203455981     -1.4191283579     0.8193925408
C     -1.125020254     -2.6363571198     0.2264050043
C     -2.5013226595     -2.3192943634     -0.077567949
C     1.2618452957     -2.4003746131     -0.5021518672
C     -0.147761061     -2.5740698954     -0.8630988784
C     3.0522326445     -0.6407980915     -0.8626518393
C     2.1661322259     -1.7134295154     -1.3871575819
C     2.7558698566     1.7570486187     -1.2899920388
C     2.9856184703     0.4567360304     -1.7995596951
C     0.9289736817     3.1135256348     -0.8094538765
C     1.7345047435     2.5501145357     -1.8965123055
C     -1.3262775987     2.4453921866     -0.0409048789
C     -0.4301063469     2.9120103184     -1.0716865279
C     -3.2036329203     0.86770301     0.4517981245
C     -3.8083493434     -0.353655004     0.0209323849
C     -2.5478744855     1.7302415395     -0.4810709702
C     -2.915411183     -1.9863499892     -1.3857257338
C     -3.7373574887     -0.7575756545     -1.3055024597
C     -0.5765371566     -2.1255751204     -2.1971619004
C     -1.970746702     -1.7987063862     -2.4272765981
C     1.738287504     -1.3266891976     -2.6477788632
C     2.2152899891     0.020915362     -2.9202016775
C     0.3617045178     -1.4250776176     -3.0237396308
C     0.8673484945     2.0568275927     -2.8827254989
C     -0.4987760952     2.3782278065     -2.4489642493
C     1.1242638637     0.7580767697     -3.4350038628
C     0.0127308723     -0.1579120723     -3.6506806712
C     -2.6731578882     1.373051334     -1.8884379077
C     -3.2527455931     0.1356327492     -2.2687520936
C     -2.3077093127     -0.5852393285     -3.134178053
C     -1.5449597094     1.5766965072     -2.8016349855
C     -1.3038384977     0.3029778795     -3.5235892684


