56

 C     1.4033291329     -0.2021433011     3.4729339663
C     2.5962544707     -0.3881566033     2.6893368301
C     2.4508670269     -1.6796842571     2.0155637334
C     0.5530487223     -1.3485086476     3.3030461819
C     1.1718987774     -2.2799443377     2.4414204059
C     -0.8066444982     -0.9346107357     3.0967112687
C     0.5841007953     0.9450968964     3.3083728892
C     -0.8057717156     0.5003136988     3.0611423716
C     1.0932451137     2.0415196977     2.610885978
C     3.1083071462     0.7145293761     1.9878656162
C     2.4120011259     1.9699933455     2.091134135
C     3.4962194226     0.5714422037     0.5835146471
C     2.8341427684     -1.8085752452     0.6868445731
C     3.3668699865     -0.6613674588     -0.0429490663
C     2.0173851103     -2.5838713754     -0.246295014
C     0.3633070986     -2.9715160078     1.5211516723
C     0.8312526028     -3.193682235     0.1711836816
C     -1.6577193203     -1.6901712919     2.231423903
C     -1.0704028946     -2.7615988531     1.4759644708
C     -2.7380319648     -0.9652652475     1.6386693199
C     -1.6718021239     1.216038142     2.1889772692
C     -2.7330779557     0.4697240017     1.6061814707
C     0.2381048945     2.7482620951     1.6311150687
C     -1.1256716456     2.3921095669     1.4408221708
C     2.3831658545     2.5925787825     0.7959322461
C     3.0570067295     1.7795638577     -0.1410266176
C     1.0729045035     3.1129264032     0.5218796358
C     2.524475646     1.6824781495     -1.4394762403
C     2.8716425701     -0.7442604242     -1.416559345
C     2.0759921117     -1.9458415723     -1.543377485
C     2.5029753397     0.4063091018     -2.1189426466
C     0.9551059105     -1.9636319541     -2.3895562217
C     -0.327605148     -3.21207525     -0.7036604851
C     -1.5021020145     -3.0011232601     0.1129181315
C     -0.263206934     -2.6200683099     -1.9679582142
C     -3.3003018291     -1.4096680303     0.3940770525
C     -2.6223602027     -2.3401657502     -0.4229393148
C     -3.3602939023     0.8824924634     0.3306727363
C     -3.7196115586     -0.2834532306     -0.3944733929
C     -1.6892013877     2.7176724306     0.1761542694
C     -2.8511497541     1.9789153576     -0.3668141985
C     0.565922741     3.0983572319     -0.8147877265
C     1.3355750273     2.4195830036     -1.8200326868
C     -0.8584829562     3.0822720022     -0.9361622944
C     1.344117634     0.3879160265     -2.9937868328
C     0.5910505371     -0.7804573235     -3.1382224586
C     0.6590665236     1.6528708806     -2.8477096965
C     -1.3997696668     -1.8757746464     -2.5094180083
C     -2.5751274634     -1.759455508     -1.7786570085
C     -3.2889295639     -0.4815645879     -1.7535027932
C     -0.8670424705     -0.7285668948     -3.2392117144
C     -2.7109394701     1.8886833126     -1.7762730844
C     -1.4701846245     2.5314194303     -2.1130367501
C     -0.7372522105     1.7193424585     -3.0053862909
C     -2.7768770181     0.6211213722     -2.4549741229
C     -1.5297750396     0.4916710412     -3.2107059946


