56

 C     1.243001985     -0.1373273606     3.4586535375
C     2.3371073789     -0.35262864     2.5818998866
C     2.2567832189     -1.7466539123     2.1362493211
C     0.3761911671     -1.2992020848     3.4200515048
C     0.9682717235     -2.2719240694     2.5758031095
C     -0.9639031124     -0.8656633855     3.2517917316
C     0.4359938128     1.0260753964     3.3898409709
C     -0.9578712729     0.5942741652     3.3818254827
C     0.834325028     2.0762588002     2.5388805987
C     2.7120768496     0.6889193632     1.650793456
C     1.9535009713     1.9055396049     1.661561825
C     3.2613946592     0.2742349195     0.3903331755
C     2.7458766746     -2.0902645185     0.8795617254
C     3.3864798047     -1.0904973437     0.097035867
C     1.9535281967     -2.9339783174     -0.037249344
C     0.1516350616     -2.9509925201     1.6497057673
C     0.6790370705     -3.3244367314     0.3388818057
C     -1.7930928621     -1.504232719     2.2532645161
C     -1.2152319637     -2.5605251824     1.4747782309
C     -2.789863302     -0.6925745274     1.6128457888
C     -1.9052318539     1.3444542491     2.6916910465
C     -2.9058846067     0.6641196023     1.9446367955
C     -0.1680016977     2.8710513961     1.8321140104
C     -1.5100329003     2.5405145125     1.9213210188
C     1.6651388873     2.6271275176     0.4190030297
C     0.4007321527     3.2806056147     0.5536402063
C     2.879667751     0.9446002955     -0.8663000881
C     2.0938716401     2.113739755     -0.8613472758
C     3.009374366     -1.2874893977     -1.2998984094
C     2.1654381883     -2.4299517697     -1.4050297552
C     2.7324507271     -0.0539215758     -1.9129127841
C     1.1334016602     -2.4049716811     -2.3376401982
C     -0.4166422182     -3.266490831     -0.6212314354
C     -1.55276866     -2.7268218609     0.0583710752
C     -0.168490954     -2.9048644541     -1.9614384648
C     -3.0448957671     -0.7980128723     0.1643738251
C     -2.4408023189     -1.8059466808     -0.612495983
C     -3.1475854037     1.4101074264     0.7127564781
C     -2.3315767286     2.5773481833     0.6992397086
C     -3.2715316792     0.5321881498     -0.3772225625
C     -0.4288468033     3.4348168543     -0.5761938226
C     -1.8053377611     3.0011061195     -0.516896762
C     1.2409939518     2.337753568     -2.014352364
C     0.0693164359     3.0790810156     -1.8641664993
C     1.6726677584     0.0263724383     -2.8956463834
C     0.9394351005     -1.1977321147     -3.1836128405
C     0.9856376789     1.2556162365     -3.0035601057
C     -1.1363231962     -2.1324439883     -2.6687270872
C     -2.1878715601     -1.4976934808     -2.0082077411
C     -0.4315099007     -1.1193198497     -3.4566040689
C     -2.7467627164     0.9265536303     -1.66735753
C     -2.1013138826     2.2285381356     -1.7523137887
C     -0.9925600138     2.3827399829     -2.5931785375
C     -0.4248864061     1.3027115297     -3.3261592429
C     -2.2852008449     -0.1026570441     -2.5172889612
C     -1.1593094941     0.1027704413     -3.4038734697


