56

 C     1.4053277675     -0.0787893295     4.1953285603
C     0.5865021294     -1.2766623851     4.1424349929
C     1.3364609686     -2.2947437154     3.4989107155
C     2.5232243164     -0.3150610116     3.2775678769
C     2.5770021296     -1.6568553603     2.9270938792
C     2.5017708309     0.6951001601     2.2336176646
C     0.6494270382     0.9439068836     3.6254687758
C     1.3319280742     1.5065829822     2.4732733322
C     -0.7268059439     -0.9517942128     3.6403512807
C     -0.7109959055     0.4789031513     3.3891624324
C     -1.3580999446     -1.7795304574     2.6371217122
C     0.7582989772     -3.0291909802     2.4695678759
C     -0.5913543749     -2.8361990295     2.025223198
C     2.6534066762     -2.0218814138     1.5435814684
C     1.6409244029     -3.0131316733     1.2952544218
C     2.7868923761     0.3630979756     0.8940036991
C     2.8688036194     -1.046344248     0.5263885356
C     2.3705983296     1.3343715472     -0.115727611
C     0.6041812226     2.1210878397     1.4195854731
C     1.2374575825     2.2376707016     0.1397191871
C     -1.4935977673     1.0895289061     2.3974296375
C     -0.8784909417     2.1219423024     1.5239684867
C     -2.3128652308     -1.1443820535     1.8050410439
C     -2.5158650179     0.285315079     1.8186450712
C     -2.5327580849     -1.535220704     0.4312287257
C     -0.5563503794     -2.898769117     0.578996212
C     0.8449062426     -2.9684876961     0.150153935
C     -1.5154789976     -2.2742931028     -0.2492267494
C     2.4247382967     -1.3757668301     -0.8180976405
C     1.2649848719     -2.2444766404     -0.9958922786
C     2.6744679308     1.0126362737     -1.4419398146
C     2.6769436704     -0.4205626986     -1.8155208837
C     2.1179461935     1.7480699718     -2.5351664342
C     0.4846376407     2.7896379773     -0.9976049786
C     0.9349493624     2.5710532696     -2.3268972392
C     -1.5997522588     2.5613491741     0.4326067101
C     -0.9360116394     3.0083104962     -0.8039773068
C     -3.1766817142     0.6830608067     0.6107661254
C     -3.2351784594     -0.4820960706     -0.2522514112
C     -2.8677993291     1.9244973978     0.0422438013
C     -3.0888459735     -0.3388844254     -1.6322328826
C     -1.1514900436     -1.9026811297     -1.6355170737
C     0.2843477436     -1.9236938793     -2.0250899828
C     -2.0311677726     -1.0603391913     -2.3384234497
C     2.0122984004     -0.4971512346     -3.054538947
C     1.8466966645     0.8421173059     -3.5733830156
C     0.726766179     -1.1356549442     -3.114193311
C     -0.0243292574     2.2327664946     -3.3874057212
C     -1.5446303985     -0.1717209811     -3.4133834723
C     0.4945485792     1.0363114511     -3.9993517082
C     -0.196893659     -0.200629171     -3.7981770831
C     -1.8327581304     2.8466039888     -1.8708616069
C     -2.9980584138     2.0909350358     -1.3581778617
C     -3.1546230326     0.9835616262     -2.1920419471
C     -1.4006857197     2.2815287743     -3.1150187187
C     -2.1888698669     1.0850461342     -3.2846357014


