56

 C     1.4291385167     -0.3458270522     4.5802189109
C     0.5425375805     -1.3449194293     4.2883164834
C     1.0391314336     -2.1579650018     3.1691762846
C     2.5255134398     -0.4595925518     3.6000378409
C     2.2256552659     -1.5486175071     2.6497609815
C     2.7117644269     0.7926040036     3.0584526372
C     0.7380399177     0.9410225343     4.3230085634
C     1.5924343736     1.7015503349     3.5361290676
C     -0.7267741546     -0.7737903642     3.8397439881
C     -0.586477548     0.6724610841     3.7824028645
C     -0.0414020226     -2.3975419589     2.3079051381
C     -1.1644523708     -1.4901422217     2.7173520613
C     0.17768997     -2.5173380151     0.9452724267
C     2.332014401     -1.3405453203     1.2244448512
C     1.4162262946     -2.0541685536     0.3614302856
C     2.8681001131     1.0159175702     1.667331576
C     2.7780436728     -0.0436288831     0.6958317376
C     1.1459688432     2.4299003794     2.4264801512
C     2.1585593364     2.2505872508     1.3799993845
C     -1.0579817449     1.3453339574     2.6077107601
C     -0.2251196287     2.3811929411     1.9831906218
C     -1.908936287     -0.8538303086     1.7010838215
C     -1.943034308     0.5976892798     1.6966725634
C     -1.0263032297     -2.5043563238     0.1263212487
C     -2.0786854582     -1.5890299753     0.4588708785
C     -0.8542738125     -2.9473888119     -1.1832555952
C     1.4088272319     -1.8423320968     -1.0803252588
C     0.46709317     -2.6175650657     -1.8315264427
C     2.5039731128     0.3312280821     -0.6922562572
C     1.9387033934     -0.6236359674     -1.647088709
C     1.9034311194     2.6022266406     0.1044806083
C     2.3207034548     1.7269775683     -0.9791050571
C     -0.4953455672     2.8312936472     0.6221329791
C     0.6087143976     3.1784848734     -0.2449223769
C     -2.3231203496     1.1837011672     0.471292522
C     -1.6662528826     2.3549531424     -0.0448350945
C     -2.8181802351     -1.0175913317     -0.652983793
C     -2.8736585627     0.4164788842     -0.6370405988
C     -1.8647546525     -2.7802102264     -2.1325421796
C     -2.8068285339     -1.6856024047     -1.9197517923
C     0.1916381     -2.3556661548     -3.1727427208
C     -1.2287004856     -2.6395527994     -3.4323656566
C     1.363791122     -0.1685607257     -2.9322451124
C     0.5206010349     -1.0382917136     -3.6929546637
C     1.5529633221     2.1247060396     -2.0868778089
C     0.4942041521     3.0294918398     -1.6339972757
C     1.0562700345     1.2348834988     -3.0488558421
C     -1.7968992142     2.3055276391     -1.4845543636
C     -2.6319901925     1.1562988083     -1.8402270098
C     -0.6915079132     2.6083363044     -2.2872923667
C     -0.3101824315     1.6577563837     -3.3497365569
C     -2.7414246377     -0.9025363637     -3.1319680217
C     -1.7562571062     -1.516080372     -4.0280183079
C     -0.7099062725     -0.5334103682     -4.2582388031
C     -2.4745881782     0.4856817676     -3.0648548967
C     -1.2086934311     0.7334322565     -3.8344886959


