56

 C     1.1304570487     0.0594609323     3.9277085973
C     2.2916974285     -0.2621457489     3.3124919543
C     2.2288825905     -1.7151633672     2.9349254969
C     0.2532945742     -1.1580443358     3.9233806559
C     0.8759375822     -2.1773065904     3.1157482777
C     -1.0183360552     -0.7084515345     3.6831024154
C     0.3463184595     1.1954168359     3.4683967874
C     -0.9925888962     0.7598006976     3.5159358313
C     0.7988009949     1.9794138788     2.3224799239
C     2.7835887912     0.4956655798     2.1585288061
C     2.0203882071     1.5956308255     1.6148144819
C     2.8646033903     -1.8246365756     1.7317170526
C     3.3086007787     -0.4847525425     1.2919151325
C     2.2515843035     -2.4582602266     0.6098905515
C     0.1615424217     -2.708691448     1.984151178
C     0.9246302397     -2.9820775647     0.7375061976
C     -1.794560756     -1.2384720048     2.6070403642
C     -1.2524081681     -2.2947073764     1.8144825858
C     -1.9248265367     1.0848851852     2.5082504732
C     -2.4979115244     -0.1238753907     1.9707853023
C     -0.2421305947     2.5862321116     1.5578399692
C     -1.6012335002     2.1401692198     1.6456963862
C     -0.0433771416     3.0412300488     0.1997556893
C     2.1085349724     1.8309659152     0.1553661661
C     1.149517329     2.726786757     -0.5063889726
C     3.1491928401     -0.4137590654     -0.0909605056
C     2.610390776     -1.6847043964     -0.5648833944
C     2.7332707993     0.8130843967     -0.6754681254
C     1.8201813247     -1.7231802352     -1.7386097053
C     0.2073126962     -3.130012717     -0.4976679973
C     0.6485560485     -2.5309182645     -1.7348374166
C     -1.8748194803     -2.4352865287     0.5323675601
C     -1.2128323594     -3.0616983766     -0.5261931114
C     -2.9112788622     -0.156346568     0.6112114942
C     -2.7522365706     -1.3932941999     -0.0523875973
C     -2.1992690944     2.2257341887     0.3405681238
C     -1.3265284569     3.0231681938     -0.478374555
C     -2.8812029878     1.0867518326     -0.2059893172
C     -1.4028750681     2.9332370991     -1.8768968431
C     1.0419169162     2.7379261339     -1.9615075305
C     -0.2165408417     2.9431512785     -2.626243511
C     2.357244185     0.6954992899     -2.0522584495
C     1.8021414087     -0.5634503413     -2.5652759027
C     1.7025519522     1.7239983705     -2.7055185624
C     -0.375568536     1.9179910571     -3.7063462965
C     0.7383867679     -0.2586406207     -3.5098147293
C     0.7752235323     1.1506848276     -3.7147174406
C     -0.5184980366     -2.1262159858     -2.5366990737
C     -1.6425273906     -2.4647427128     -1.778934646
C     -2.6290214058     -1.4657865165     -1.4916547341
C     -0.5257309243     -0.9393069189     -3.3688418327
C     -2.9075527188     0.9632559554     -1.6373194069
C     -2.2950516976     1.9411546259     -2.4577115316
C     -1.631108413     1.2901788922     -3.5620473417
C     -2.6839160964     -0.325508679     -2.2790275142
C     -1.7308062455     -0.1320372963     -3.3734814097


