56

 C     1.4742157046     -0.2037115265     4.3531178149
C     0.6605174109     -1.3360881307     4.3523582454
C     1.1597912622     -2.2642523877     3.3685332815
C     2.5256423049     -0.3471911491     3.3569976858
C     2.3842767328     -1.6969220871     2.8146085106
C     2.3700697687     0.724607079     2.4513470423
C     0.6616393332     0.9504393267     4.0592940189
C     1.2459606206     1.5815666829     2.9310946261
C     -0.7112617289     -0.9615358231     4.0420777406
C     -0.7219216438     0.4978514174     3.9645068967
C     0.0827304201     -2.5399633536     2.4873343332
C     -1.0649790252     -1.6659804863     2.8708397521
C     0.3116690259     -2.7973837528     1.1195184992
C     2.5932742585     -1.8687960991     1.4740684147
C     1.6807028544     -2.6752634413     0.6943283603
C     2.5818965731     0.578360341     1.0190178523
C     2.9182049792     -0.7370908642     0.5897133131
C     1.9362798676     1.4731045656     0.0590756994
C     0.4480722404     2.2493750482     1.9787258532
C     0.925869587     2.4053337946     0.5855709342
C     -1.4966093006     1.077762162     2.998157132
C     -0.9708756896     2.163259476     2.2003651207
C     -1.885465963     -1.0807017243     1.8210417411
C     -2.2730737878     0.2717521025     2.0411455089
C     -0.7518973587     -2.5308221522     0.1238951885
C     -1.8134598775     -1.561696249     0.4417888969
C     -0.42231903     -2.7376061579     -1.2174186676
C     1.9458989106     -2.4049349887     -0.6654184207
C     2.6708344105     -1.1277583814     -0.7469392769
C     0.997876689     -2.7326366991     -1.6089253434
C     1.9089259546     1.145216309     -1.370156079
C     2.3195645225     -0.2116795118     -1.7633646849
C     1.0588267163     1.9120734916     -2.3051505696
C     0.0463161555     3.0088194029     -0.3159252943
C     0.1525137924     2.8730871228     -1.7524551904
C     -1.8393458897     2.3280764071     1.0999494139
C     -2.6225426545     1.0929253989     0.9438751918
C     -1.3937098218     3.0181546791     -0.0052848941
C     -2.405291941     -0.7871837354     -0.654033708
C     -2.8395264919     0.5867320215     -0.3570473945
C     -1.1515386673     -2.1524827795     -2.3215869601
C     -2.1299593876     -1.1394566396     -2.0629512664
C     1.0940133606     -2.1071568672     -2.8552926442
C     1.7760132998     -0.8147242579     -2.9663107599
C     -0.2139472132     -1.9978952439     -3.4214909573
C     0.655649921     1.2953522231     -3.5751164844
C     1.0165076858     -0.0454777282     -3.8474409542
C     -0.2222481895     -0.8319303803     -4.2045245479
C     -2.2928565638     -0.1144204274     -3.1014490842
C     -0.722786999     1.4143443495     -4.0232284924
C     -1.2771265045     0.028212015     -4.1324694715
C     -1.1882986668     3.0093477988     -2.2968981011
C     -2.08902866     2.8248689222     -1.2023945853
C     -2.8484884598     1.5883096651     -1.4072625505
C     -1.6254433942     2.1646867482     -3.3304046555
C     -2.6297514728     1.2091244947     -2.7314060702


