56

 C     1.377610674     0.0439210325     4.1545352865
C     0.5377742729     -1.133124958     3.9213313934
C     1.2382719059     -2.0367943237     3.1322453969
C     2.5294812768     -0.0919643928     3.2771013579
C     2.5267704527     -1.3794514182     2.7461578933
C     2.544133272     1.0156701858     2.3168955515
C     0.6330042614     1.1033724129     3.6401731492
C     1.3511053279     1.7850398159     2.5757097937
C     -0.770101062     -0.733764556     3.4606585841
C     -0.7360636621     0.7040478313     3.3358236917
C     -1.4484808126     -1.4747114505     2.445415332
C     0.6749044602     -2.5841608433     1.9419763901
C     -0.7025639085     -2.4117673034     1.5987961775
C     2.7367727561     -1.6150898319     1.3689931321
C     1.6762376741     -2.4918200543     0.8976319287
C     2.9688421794     0.8170499473     0.9747438608
C     3.1711704357     -0.5586014766     0.4954897844
C     2.4756602708     1.7643126177     0.0197362564
C     0.6437098234     2.459238312     1.5443991276
C     1.3472662109     2.600240298     0.3228171952
C     -1.4976705141     1.4005937933     2.3652212782
C     -0.8392227023     2.4169838633     1.5109541129
C     -2.5391596163     -0.77454259     1.8641193612
C     -2.5915278721     0.672318181     1.8326703518
C     -3.0803694829     -1.2187242344     0.6413775806
C     -1.0798584526     -2.5773654284     0.188772811
C     -2.3584455825     -2.070504562     -0.2215874264
C     1.3566202332     -2.603629609     -0.4690935356
C     -0.0571478671     -2.7446776836     -0.8427201048
C     3.037146589     -0.8238955749     -0.878705232
C     2.2853253215     -1.963008182     -1.3605965337
C     2.4415077992     1.4976015268     -1.3953604079
C     2.8405144876     0.2397853368     -1.872721586
C     0.6626731099     2.8947772388     -0.9172564006
C     1.3040569162     2.1854743015     -1.9948908531
C     -1.4801783833     2.7841983827     0.3219125448
C     -0.713265916     3.0806957214     -0.8997206296
C     -3.2624802382     1.0784724524     0.6078745224
C     -3.6451930886     -0.1019228187     -0.1033045538
C     -2.732255875     2.1548828439     -0.117803585
C     -2.6077485856     -1.5594728927     -1.5732243245
C     -3.3453805953     -0.2830275701     -1.4671573992
C     -0.4005598239     -2.412749735     -2.1989812516
C     -1.6401099574     -1.7062477924     -2.5247830243
C     1.897185597     -1.6786455183     -2.6992361819
C     2.1963675095     -0.2989589884     -3.0117839506
C     0.5826976972     -1.9246555465     -3.0954952983
C     0.532880105     1.5810251162     -3.0436027204
C     -1.3017694746     -0.589780673     -3.4464472873
C     1.0098735478     0.3095540133     -3.5629967618
C     0.0607177954     -0.7323549635     -3.7797975652
C     -1.4646757289     2.629441112     -2.0218903517
C     -2.696442913     2.0569947353     -1.5433365036
C     -2.9149738537     0.8280675015     -2.2384666429
C     -0.8965066377     1.793691048     -3.0192508549
C     -1.8381294167     0.6779653299     -3.2033229091


