56

 C     1.6180920596     -0.1016197383     4.3251933629
C     0.7972009071     -1.2593591076     4.3954105668
C     1.244573442     -2.1531574592     3.3490255836
C     2.5123380214     -0.2624670459     3.2078318736
C     2.3359618712     -1.578690104     2.6249478206
C     2.4937959697     0.8880740268     2.3319658387
C     0.7911428024     1.0061758712     3.9340934218
C     1.4492506259     1.7606334396     2.8940677198
C     -0.5050773132     -0.8657025695     3.9358443685
C     -0.5540529637     0.5604111933     3.6979448175
C     0.11564336     -2.6441334495     2.5892459927
C     -0.9855438705     -1.7324690971     2.8859848579
C     0.3490351398     -3.0339783066     1.2906551889
C     2.4504501184     -1.7538505376     1.2107602498
C     1.6088462438     -2.7439051222     0.6239447203
C     2.6333390482     0.7652095025     0.9304259631
C     2.7986854364     -0.5886918975     0.3611387617
C     2.0520254643     1.8235596382     0.0620654665
C     0.658930568     2.4461247448     2.0281711231
C     1.0995946745     2.6757545708     0.6688698095
C     -1.312826861     1.0841986304     2.6003358776
C     -0.7915929368     2.2507926886     1.9763496101
C     -1.7906829329     -1.2510244396     1.8232645622
C     -2.0928264378     0.1872874849     1.724347335
C     -0.6934156157     -2.9063273804     0.3041286237
C     -1.7842878582     -2.043547626     0.5841958328
C     1.3430524039     -2.7564289665     -0.77611333
C     -0.0826100263     -2.9185591208     -1.0108692399
C     2.6770175795     -0.7290453984     -1.0249439326
C     2.0554977815     -1.9101142067     -1.6286537493
C     1.9701928501     1.650712172     -1.3950395458
C     2.3952007301     0.3930552993     -1.9281535893
C     0.9916333178     2.3728121801     -2.155926314
C     -0.0463813491     3.116082452     -0.0573824991
C     -1.2234575967     2.6766037058     0.6948501542
C     -0.046775686     3.1094639884     -1.441332669
C     -2.6601388753     0.7043314224     0.5029621605
C     -2.2987819842     2.0494390956     0.0098226337
C     -2.4745479078     -1.5337969029     -0.5366856539
C     -3.0663409224     -0.2535497849     -0.5075044193
C     -0.7203680419     -2.3663820213     -2.1494533423
C     -2.0489531391     -1.8350397618     -1.928300303
C     1.4779345004     -1.5281634519     -2.8578873207
C     1.7743284035     -0.1312858097     -3.0839231363
C     0.0979116562     -1.7151690398     -3.1475566836
C     0.3602987996     1.8130443786     -3.3455147957
C     0.6618382917     0.4927049093     -3.7252826743
C     -0.3923257742     -0.5186224836     -3.8514945145
C     -1.2908479299     2.9307721241     -2.0818823534
C     -2.3990399206     2.3653884544     -1.3991844434
C     -1.0349108911     2.1877511561     -3.3295213947
C     -3.2334218824     0.1337648259     -1.8893683672
C     -2.5721216066     -0.8572182071     -2.7633004537
C     -1.7345021698     -0.1332679392     -3.7007650737
C     -2.9326515853     1.3913919409     -2.3261424432
C     -2.0453279483     1.2700270595     -3.525662055


