56

 C     1.4810255004     0.0383989165     3.9992581079
C     0.7223182942     -1.115021425     3.7916188549
C     1.3355278387     -1.962530027     2.7836956473
C     2.4503106077     0.0749082037     2.9363581671
C     2.3805012879     -1.162968157     2.1893815457
C     2.3892900815     1.2904110996     2.2266921144
C     0.6181102017     1.1823342581     3.7450990463
C     1.2895756245     2.0732935931     2.8561635114
C     -0.6634698434     -0.7058641422     3.5614164979
C     -0.7011289559     0.7634360603     3.4377866148
C     -1.4538806534     -1.467063039     2.754478789
C     0.5205117048     -2.8119875387     1.9774953736
C     -0.9255085824     -2.6807599112     2.1106962739
C     1.0221858946     -3.1368660987     0.6939556599
C     2.6131365048     -1.1781855814     0.7849216875
C     2.1195101671     -2.3481928765     0.1306259056
C     2.5759268324     1.3306751061     0.7918458626
C     2.7110975869     0.0833449087     0.0314344351
C     2.0408497906     2.4745934384     0.1298745325
C     0.5181073683     2.8821309615     2.0589809668
C     1.082560041     3.3023233345     0.8117172154
C     -1.4359873276     1.3863841203     2.3479761791
C     -0.8790720331     2.5726320394     1.8098940823
C     -2.393211894     -0.8332293242     1.8085465454
C     -2.2833328893     0.5561276741     1.4656307397
C     -1.7406130109     -2.9184454318     1.0024248958
C     -2.6655664422     -1.8017442683     0.833911147
C     0.1398076775     -3.4844543078     -0.4192634845
C     -1.2469364478     -3.2712067603     -0.2848031708
C     1.9859622807     -2.3451821273     -1.2660986135
C     0.7617227433     -3.0547106083     -1.6249404845
C     2.3890417133     0.0889005084     -1.3984060138
C     2.0656925071     -1.1652839901     -2.0168285841
C     1.7057107596     2.4714976081     -1.2842000253
C     1.8768370285     1.3036634043     -2.0676227903
C     0.0432296135     3.5672292535     -0.0957804277
C     -1.1493387006     2.9653896324     0.4370740491
C     0.4868053765     3.2498272598     -1.4199152675
C     -2.5434071285     0.9398974689     0.0752062753
C     -1.9962336096     2.2065958279     -0.4231950197
C     -2.7471778775     -1.4818066769     -0.5297842042
C     -1.9372112977     -2.4465843744     -1.2758565143
C     -2.8241685304     -0.1095198869     -0.9191244586
C     0.1003644523     -2.3542444959     -2.6354374957
C     1.0059252454     -1.2663515156     -3.0393510092
C     -1.3166405039     -2.0459628602     -2.4837850329
C     1.0191339242     1.1770065545     -3.2355570157
C     0.5234153951     -0.148755571     -3.6504846067
C     -0.4739579438     2.9035806318     -2.3374809739
C     -1.7847438062     2.3985158546     -1.8422372212
C     -0.089394866     2.0438602215     -3.4088691571
C     -2.552536212     0.1132159548     -2.2987860305
C     -1.7946297682     -0.8388995617     -3.0756566147
C     -0.9122966329     -0.0442301094     -3.9124368799
C     -2.2031603831     1.4331923734     -2.7791846673
C     -1.2605886839     1.3066843883     -3.8590749596


