56

 C     1.0699102152     -0.0877971837     4.0338405272
C     2.2155470685     -0.3263237135     3.310412469
C     2.1649457515     -1.6794578013     2.7334270318
C     0.2190682296     -1.3034164894     3.8629748513
C     0.8637939771     -2.2141772399     2.9486404011
C     -1.0344560828     -0.8507136329     3.5504217974
C     0.2610851324     1.0879598783     3.7533788277
C     -1.072227381     0.6262812626     3.5966731104
C     0.7439618936     2.0296860257     2.7934742543
C     2.6696248478     0.5605793373     2.2568971887
C     1.9809517712     1.7461949651     2.0549158724
C     2.7621972642     -1.6441503821     1.4545680361
C     3.0551173534     -0.2612147455     1.0983438269
C     2.2651723132     -2.5146147772     0.4872531862
C     0.1456801771     -2.7468150187     1.805135048
C     0.9671843409     -3.1248938417     0.707931298
C     -1.7514147611     -1.2763796511     2.3690263363
C     -1.216250392     -2.2453410403     1.4852347921
C     -1.9012376488     1.0682378653     2.5578939445
C     -2.4389867693     -0.1106350286     1.8622012006
C     -0.1493130927     2.6258789284     1.8582325842
C     -1.5080481676     2.1935553838     1.7565947216
C     1.8387760637     2.2456082026     0.7045591238
C     0.57930142     2.8985894102     0.5993610362
C     2.9073463869     0.1839754071     -0.2330334678
C     2.3806657313     1.5520911544     -0.423874348
C     2.36865689     -2.1685885421     -0.9058800395
C     2.674413488     -0.833744802     -1.288632663
C     0.397323194     -3.2951817266     -0.581596177
C     1.3036108893     -2.8686360303     -1.5922116408
C     -1.709196938     -2.2134994739     0.0896247058
C     -0.9238717082     -2.8565453609     -0.9075319632
C     -2.908334949     -0.0255602451     0.5474395838
C     -2.6130654931     -1.1491614161     -0.3661386879
C     -2.1627240053     2.3315490896     0.5086989351
C     -3.0394215856     1.3127748963     0.0172389876
C     -0.0760521853     3.0746387003     -0.6482850537
C     -1.5293418632     2.9677149677     -0.6582099329
C     1.8390277642     1.9147488923     -1.6816003259
C     0.6354216381     2.6928549148     -1.8190908251
C     2.1235947243     -0.3940513334     -2.5502596163
C     1.8539124989     0.9566757585     -2.7539255816
C     0.5656094686     -2.2953065622     -2.6534251297
C     -0.8627835246     -2.3788977937     -2.2786114482
C     1.0363034234     -1.1332116964     -3.2487213773
C     -2.7021705201     -0.8790788701     -1.7661436756
C     -1.7425024219     -1.4171532531     -2.7071039487
C     -3.1656603289     1.5222960256     -1.3877957136
C     -2.2053812851     2.5508542921     -1.8042693811
C     -2.9983306449     0.4516830074     -2.2353009139
C     -0.0921969313     2.1906902974     -3.0127834881
C     0.6592572471     1.1300337843     -3.5615929776
C     0.1112789168     -0.1676988038     -3.8153562226
C     -1.2824043608     -0.3291221068     -3.6110579283
C     -1.5024240828     2.0711710208     -2.9810398004
C     -2.0709429566     0.8050451042     -3.33092135


