56

 C     1.2658881918     -0.1611646422     3.5249418655
C     2.4140463376     -0.4285295464     2.8359144714
C     2.3304031637     -1.8074975409     2.3066036827
C     0.3972750542     -1.3573411116     3.4667045024
C     1.0587815271     -2.3732827919     2.6852039918
C     -0.8763798351     -0.9188906904     3.1347451739
C     0.4919716981     1.0151690042     3.2222339915
C     -0.8480736381     0.5698625238     3.0403867253
C     1.0447694237     2.0590944481     2.3999507868
C     2.8649653412     0.4625837483     1.7981625801
C     2.2820302601     1.7709806002     1.6574505982
C     2.7204480844     -1.7564629563     0.976230532
C     3.118878546     -0.3538987894     0.659754765
C     2.0421220775     -2.5524144802     -0.0179961811
C     0.318636427     -3.0620941542     1.7191482077
C     0.866101398     -3.2637597735     0.38839719
C     -1.7013072753     -1.6807036346     2.2284964428
C     -1.1037306452     -2.8050564134     1.5705252896
C     -2.7315222852     -0.9614255785     1.5320173623
C     -1.7343309325     1.2561221422     2.1612604358
C     -2.7031034029     0.4929536073     1.4427167588
C     0.0674981453     2.9135002094     1.7783021237
C     -1.2745650682     2.4772183233     1.5895901823
C     0.407642863     3.6770811867     0.6054485533
C     2.4404915081     2.3609148368     0.3542304943
C     1.5558005316     3.4097159735     -0.0835793751
C     2.9657905954     0.1616318976     -0.6593583983
C     2.6923869035     1.5534570715     -0.791041998
C     2.1145091051     -2.08989327     -1.3761643128
C     2.5058659155     -0.7200289583     -1.683269775
C     1.094765677     -2.4309513053     -2.2891247269
C     -0.2557609121     -3.3954405867     -0.5288173079
C     -1.460919955     -3.1148020376     0.19441813
C     -0.1326947689     -2.9750753268     -1.8709180916
C     -3.1963298342     -1.4317085027     0.2860308505
C     -2.5123658339     -2.4209349973     -0.4428391098
C     -3.147806326     0.9002798471     0.1159437638
C     -3.452963588     -0.283992512     -0.5869591561
C     -1.7296575013     2.8971399277     0.2321487776
C     -0.7239447654     3.656979472     -0.347349486
C     -2.5238391429     1.9978240222     -0.5695109604
C     1.20918296     3.2068227815     -1.5074507328
C     1.867170282     2.0595670417     -1.9263656136
C     -0.2188028964     3.3403324615     -1.6607567839
C     1.6982251016     -0.2281876254     -2.7922374778
C     0.8381322794     -1.2832351864     -3.1621146099
C     1.2195905755     1.1261132547     -2.8160033835
C     -1.1992900726     -2.1813206565     -2.5152166812
C     -2.3561106758     -1.9119383951     -1.8209897535
C     -2.9303998735     -0.5514020782     -1.8648662568
C     -0.5507289958     -1.1055423222     -3.2929452024
C     -2.1342738014     1.8037395588     -1.935074249
C     -0.9008693456     2.3917813317     -2.429246154
C     -0.1644416031     1.3450360486     -3.1172018926
C     -2.2671581062     0.4908565257     -2.5481626448
C     -1.0619988735     0.2102180407     -3.2713979164


