56

 C     1.4100090353     0.0606566281     4.1476770887
C     0.6301712168     -1.1355468523     3.9333051872
C     1.3776152126     -1.9938280045     3.1166693668
C     2.5388368756     0.0071333264     3.1958907023
C     2.5710174078     -1.2428454072     2.6172137871
C     2.4837625306     1.1402846313     2.3009236662
C     0.6275316408     1.1171476634     3.686763221
C     1.3337418882     1.9178469684     2.6953754634
C     -0.7016818507     -0.7627076379     3.4483699964
C     -0.7164946018     0.6819101087     3.3455903554
C     -1.3631057781     -1.5478869078     2.4632986116
C     0.8113342761     -2.6728082003     2.02713148
C     -0.6083252573     -2.6341543738     1.7985022839
C     2.6280452302     -1.4345877207     1.1926061422
C     1.6810333433     -2.4767483868     0.8734956
C     2.7605120519     0.9886864019     0.8949321772
C     2.783062016     -0.3521405119     0.2858332678
C     2.3359727401     2.0765734032     0.1099648113
C     0.6269070903     2.7057721073     1.7710093036
C     1.3844792059     3.0333559712     0.6000821004
C     -1.4305414902     1.3537857402     2.3231031082
C     -0.8325677387     2.520996335     1.6313955864
C     -2.3341776318     -0.8655313883     1.6643702575
C     -2.37612981     0.5645519356     1.6072360459
C     -2.7800684873     -1.375340321     0.3813589815
C     -1.0118466842     -3.0727691417     0.5298328535
C     -2.2301325591     -2.565192741     -0.1191378538
C     1.2398028329     -2.7020324092     -0.435885799
C     -0.057065822     -3.3217725262     -0.5305943649
C     2.3405403404     -0.5369638063     -1.1091893638
C     1.7182041155     -1.8075408311     -1.4998429938
C     2.1452845843     1.9553390824     -1.3370225812
C     2.1122291862     0.645793858     -1.9360290171
C     0.741469464     3.5783183415     -0.5427820356
C     1.2829505406     2.9888958638     -1.7634737371
C     -1.4240115254     2.9339209086     0.4152914204
C     -0.6454247568     3.5700634807     -0.6109118531
C     -2.8270173424     0.9237322158     0.2784315591
C     -3.0337445891     -0.2774792364     -0.5118383564
C     -2.3783883781     2.0841792471     -0.2987184953
C     -2.7127202337     -0.3314772839     -1.9111353182
C     -2.1102297863     -2.7098048245     -1.5096966441
C     -0.7598446727     -3.2605500113     -1.7620512715
C     -2.3284450171     -1.6375430377     -2.4175637838
C     1.0238065374     -1.8862434755     -2.7559674466
C     -0.2190507191     -2.6407107113     -2.8580437742
C     -1.2596577555     -1.7310708903     -3.3990245616
C     1.2717820141     0.5314226973     -3.104632241
C     0.8326672548     -0.7181340076     -3.5287072923
C     -0.6212664573     -0.6007750675     -3.8213128161
C     0.1672507742     2.6865280705     -2.6201141306
C     -1.0367419931     3.0380677425     -1.9155550716
C     -2.0640635406     2.0939087576     -1.7329570389
C     -2.1212067335     0.879565056     -2.5191119713
C     0.1682559009     1.4976090062     -3.3233321459
C     -1.0443241052     0.7181401655     -3.4610224759


