56

 C     1.3109253104     -0.3650085461     4.8207521248
C     0.5638058186     -1.5377833412     4.7974966094
C     1.3097674839     -2.53456022     4.0617120132
C     2.5353120599     -0.5654965358     3.9960564342
C     2.5449637419     -1.8989761295     3.5407989203
C     2.5926097453     0.5195580845     3.0525081897
C     0.5553413284     0.6892049013     4.1896902311
C     1.3420762696     1.3066238016     3.1839302733
C     -0.6922488007     -1.2623691444     4.0781617303
C     -0.7469116226     0.1437194474     3.7883150429
C     0.5492321613     -2.8800626377     2.9433968644
C     -0.7430532191     -2.1391201323     2.9574136817
C     2.5963878194     -2.1272577159     2.1176366272
C     1.3334301807     -2.7809796719     1.7310026197
C     3.0137864621     0.2763051421     1.7473733521
C     3.0331370318     -1.1054361676     1.2674829149
C     2.5504329365     1.0981461061     0.646495966
C     0.7263579788     1.89875756     2.0348453723
C     1.4555114952     1.9950384203     0.7739763713
C     -1.3098217333     0.5852695172     2.5838056652
C     -0.7007884436     1.7300088549     1.9032204963
C     -1.2950644436     -1.7162958531     1.7346978731
C     -1.8505209868     -0.3900748206     1.6510912869
C     0.7200645078     -2.5153099482     0.4960544225
C     -0.7251536353     -2.2052709113     0.4558650891
C     2.5911720704     -1.0718625899     -0.0957891826
C     2.5585786712     0.2989098519     -0.5472423343
C     1.495561745     -1.8575359159     -0.5364480852
C     1.9148450905     0.6715835781     -1.7287655876
C     0.7793912702     2.425948463     -0.4528301065
C     1.209206557     1.9300920802     -1.7567127845
C     -1.3135899513     2.1638727872     0.7261414509
C     -0.5983132435     2.7634522104     -0.365984108
C     -2.4100875109     0.0484624906     0.4050344449
C     -2.4058794088     1.4384032959     0.1224149841
C     -1.3106284824     -1.8218212656     -0.7483975179
C     -2.4162700564     -0.8400510041     -0.7397917837
C     0.8837526745     -1.5223418058     -1.7900115641
C     1.3986836483     -0.4094835107     -2.5710352499
C     -0.5051481288     -1.8448052121     -1.9933817407
C     0.7800502134     -0.0781630588     -3.783552111
C     0.4351926331     2.2090921238     -2.9285434494
C     0.4664913391     1.3321434776     -4.0428573163
C     -1.4687340897     2.7800506067     -1.52535575
C     -2.6161952476     1.930213448     -1.2075703435
C     -0.9472033327     2.7353112459     -2.8160697003
C     -2.922095936     -0.3616517211     -1.9592888559
C     -3.1263540478     1.0788992922     -2.1937918546
C     -1.1012234954     -1.5091486372     -3.2224281323
C     -0.3630929109     -0.8252627064     -4.2298095009
C     -2.4646223038     -0.9088784191     -3.2186298123
C     -0.7913978257     1.3927135966     -4.7461020769
C     -1.7282613803     2.1619650467     -3.8800874796
C     -2.8298205362     1.3354836085     -3.5817326027
C     -1.2889278942     0.1033767259     -4.9016906537
C     -2.5746595667     0.0324018675     -4.2434713771


