56

 C     0.7983588523     0.0430692274     4.8871880282
C     0.1097150031     -1.1802402339     4.5471087268
C     0.9876715023     -1.9276350698     3.7027248571
C     2.0748964055     0.1076593631     4.2144322654
C     2.2289185875     -1.1035361566     3.4983586544
C     2.0995338354     1.3403345655     3.4920105272
C     -0.0108600726     1.1897816027     4.5457656879
C     0.774466825     2.0176595221     3.7082530279
C     -1.1645558334     -0.815132931     4.0503899373
C     -1.2511865288     0.6862900336     4.0455004168
C     -1.6076525776     -1.2739420389     2.7954423638
C     0.5669308572     -2.3834987471     2.4498268964
C     -0.7904634005     -2.1463833001     1.9773793876
C     2.5155109995     -1.0948055581     2.1201551184
C     1.6377093495     -2.0695074256     1.4842430575
C     2.3738832021     1.3666699747     2.1214254293
C     2.6810801724     0.1450429083     1.3898916843
C     0.2955767644     2.4337383837     2.4516760904
C     1.3747291601     2.2496052734     1.4890773935
C     -1.7375468309     1.0819225058     2.7957659434
C     -2.1849709042     -0.1353799774     2.0917132998
C     -1.0177208877     2.048635371     1.9774620931
C     -2.3900758776     -0.1476242302     0.737619584
C     -1.0246542392     -2.1672508003     0.5693301256
C     -2.061818289     -1.348794067     -0.0340315737
C     1.4092913234     -2.0673558006     0.1338430432
C     0.082178153     -2.4812958496     -0.3373929311
C     2.460443116     0.1333154567     -0.0203983601
C     2.0921493405     -1.0879100227     -0.7149998006
C     1.1458285928     2.2239655381     0.1389927818
C     1.9947213818     1.3535891166     -0.6836650522
C     -1.2530986779     2.0439596171     0.5694682533
C     -2.2421633081     1.1190203351     0.010598674
C     -0.213051717     2.4267542407     -0.369316761
C     -2.4774842623     1.1131073604     -1.3386300675
C     -2.2841532012     -1.3562281125     -1.4441373815
C     -2.7776970704     -0.1351135427     -2.0664040647
C     -0.1364768533     -2.508985653     -1.68913349
C     -1.4370840345     -2.1946375312     -2.2674405953
C     1.853799165     -1.0959232904     -2.122501008
C     0.8869520716     -2.0503806097     -2.6482495433
C     1.7864548928     1.3514598431     -2.0373099431
C     1.9753360283     0.1532300183     -2.8456036312
C     -0.4427357271     2.4047278214     -1.7780068381
C     -1.7417253464     1.9763271733     -2.2543205181
C     0.6872546324     2.1204683208     -2.6522342707
C     -2.5772065143     0.116447516     -3.426932326
C     -1.9150200158     1.4607101706     -3.5526315362
C     -1.237092463     -1.9209044546     -3.6338234552
C     0.2453418229     -1.8322141594     -3.8711055582
C     -1.8478555822     -0.8000780307     -4.2456083612
C     1.3135112344     0.3608975305     -4.0705563369
C     0.49605848     1.6166706061     -3.9422867787
C     -0.8146757437     1.3279664848     -4.432964202
C     0.4889893497     -0.6452118602     -4.6287671225
C     -0.7982651319     -0.0430564173     -4.8871918611


