56

 C     1.0509630919     0.0154327314     3.8731460142
C     2.1719872966     -0.2278292963     3.0647085833
C     2.1792439404     -1.6148779703     2.648082765
C     0.2445992042     -1.1896298819     3.825044365
C     0.8857580878     -2.136882266     2.9518726734
C     -1.0629245398     -0.7773395724     3.5253103185
C     0.2111046474     1.1427693906     3.565655995
C     -1.1354271005     0.6688410247     3.5542596607
C     0.6158227771     2.1083049667     2.5686402142
C     2.449991928     0.5778636074     1.9118107186
C     1.7333824139     1.7954920687     1.666737227
C     2.6643700437     -1.6602738126     1.3063685702
C     2.8216820396     -0.2993444402     0.8126159092
C     2.1883101835     -2.6251577801     0.4597544828
C     0.1365813842     -2.7902272171     1.902124682
C     0.9264465187     -3.3011375736     0.826290605
C     -1.734303735     -1.2265082069     2.3407847259
C     -1.1941846195     -2.2841801402     1.5371613963
C     -2.021653542     1.0777646397     2.5126318182
C     -2.3949721576     -0.0873928822     1.7228788624
C     -0.4509004858     2.870139476     1.999390071
C     -1.7951131167     2.2687937253     1.8766128858
C     -0.2285299834     3.6126810769     0.8484447324
C     1.7759771606     2.3100931569     0.3016058307
C     0.9053143435     3.4191729738     0.0009247452
C     2.5655102462     0.0266649923     -0.5364646991
C     2.1782727167     1.4102691411     -0.80794201
C     2.1441644299     -2.3826074033     -0.9668860941
C     2.2657005284     -1.065676091     -1.4950692198
C     0.3114121764     -3.6877965217     -0.3559607409
C     1.166106936     -3.2916504043     -1.4996466315
C     -1.6965545987     -2.3820755018     0.1703212168
C     -1.0231790431     -3.3123485073     -0.7012737267
C     -2.600325106     0.0048881553     0.3295949307
C     -2.3883899382     -1.2198354732     -0.4405656368
C     -2.2218200121     2.4529886549     0.5054548573
C     -1.4225917941     3.5241094192     -0.0243803067
C     -2.5701630145     1.3416168462     -0.3140381233
C     0.4369263171     3.6397782699     -1.3402780089
C     -1.0435135166     3.6046628959     -1.3360954074
C     1.6871227379     1.676658764     -2.1157428241
C     0.8371135321     2.8022766563     -2.3569678446
C     1.5072518969     -0.7685561716     -2.7266115646
C     1.2296751273     0.5879286676     -2.9859334237
C     0.383666939     -3.0066283685     -2.5846968672
C     -1.0200793672     -3.1112523475     -2.1248008749
C     0.5484981661     -1.7411797068     -3.2580848023
C     -2.355297496     -1.0710754492     -1.854535414
C     -1.683239785     -2.0354117774     -2.6706946467
C     -0.7709404637     -1.2867900099     -3.5462616632
C     -2.2612631752     1.4519336154     -1.7537013303
C     -1.4767826914     2.5825051211     -2.2577529102
C     -0.3428406196     2.2962346653     -3.0717913045
C     -0.0658023304     1.0047739989     -3.5225994545
C     -2.1478667128     0.2442487747     -2.4699327671
C     -1.1142978661     0.0647772869     -3.4895205592


