56

 C     1.5560220915     0.098564604     3.9069992576
C     0.7827955463     -1.0597719453     3.7667239516
C     1.3692284857     -1.9038282924     2.7340401179
C     2.5984275687     0.0959942054     2.9389510123
C     2.5402255384     -1.1804802083     2.2618846129
C     2.5043775418     1.2893454234     2.1540885307
C     0.7038109907     1.2611264883     3.6461143079
C     1.3582331076     2.0600709632     2.649048725
C     -0.6013753162     -0.6347657344     3.628349626
C     -0.6269857475     0.8465247852     3.4663062588
C     -1.423131694     -1.3956874109     2.8614643734
C     0.5342688842     -2.6017638444     1.8171192072
C     -0.8861937594     -2.5266976898     2.0801166563
C     0.9494953319     -2.7710336803     0.4077895304
C     2.8358609651     -1.2121580352     0.9123564037
C     2.1478038031     -2.1089611034     0.0147913715
C     2.7984139065     1.2807914577     0.746181458
C     3.130203272     0.0155925992     0.1799185173
C     2.1473471303     2.2683212941     -0.1334994438
C     0.5645115901     2.7396936594     1.7392966671
C     1.0243230775     2.9852947212     0.3844321848
C     -1.4482315319     1.4472929027     2.4348386301
C     -0.8651459496     2.5182932579     1.7021650993
C     -2.5075565397     -0.779399131     2.067668343
C     -2.471358305     0.6264115333     1.7614198231
C     -1.789789375     -2.7259579388     1.0424041243
C     -2.8555795153     -1.7075328994     1.0852362907
C     -0.0453649381     -3.0134027817     -0.6553854439
C     -1.4383850672     -2.9720718211     -0.3060188645
C     0.265014253     -2.653311106     -2.0096627775
C     2.347226523     -1.605413542     -1.3294150025
C     2.9268444379     -0.25846209     -1.2162488613
C     1.4708533625     -1.9091776854     -2.3406613359
C     2.1568293394     2.0360471024     -1.5523402374
C     2.5487326521     0.7389418123     -2.0947349057
C     1.1004635836     2.5104014633     -2.3712489935
C     -0.1399840612     3.220233604     -0.4303904851
C     -1.2968491407     2.8371767881     0.3546266267
C     -0.1083779166     2.9774643251     -1.8094335639
C     -2.9096743654     0.9918707675     0.4461240505
C     -2.3204833196     2.1186732165     -0.2488642438
C     -3.1726530942     -1.3573142241     -0.2427470961
C     -2.3964359614     -2.2316756761     -1.1247892341
C     -3.2682275712     0.0063315027     -0.5563252899
C     -0.7480409352     -2.1391130978     -2.8662431943
C     -2.0334835109     -1.7813043442     -2.3870697004
C     1.1455739714     -0.8881217209     -3.3580431276
C     1.6662329977     0.415294668     -3.2272046152
C     0.7837145189     1.5142283708     -3.3890604775
C     -0.2254297114     -1.0478089513     -3.6702332479
C     -1.2085439947     2.253187458     -2.4601584219
C     -2.270561801     1.8187460431     -1.6783673557
C     -2.834168401     0.4858966774     -1.860921395
C     -2.2847916689     -0.3874845997     -2.798669147
C     -0.6294086534     1.3510059483     -3.4610791051
C     -1.1506226456     0.0438819419     -3.6116402013


