56

 C     1.3341171971     0.0440918805     4.4434963517
C     0.5723354497     -1.0861217679     4.0364986022
C     1.4179583428     -1.9570925119     3.303620988
C     2.651052677     -0.0506644496     3.7784539065
C     2.7242794243     -1.2873068121     3.0973718871
C     2.848646802     1.1175592513     3.019403472
C     0.6688400453     1.1940793065     3.9324017657
C     1.5949007292     1.9347244128     3.1572196056
C     -0.6295099116     -0.6428538499     3.3601711563
C     -0.5710265299     0.8127475654     3.2756164723
C     -1.14731213     -1.3633198944     2.2695993131
C     0.9984738867     -2.5668271174     2.1074263971
C     -0.3379289758     -2.4133719129     1.6370725319
C     3.0038101911     -1.3620597426     1.7058535495
C     2.0753707195     -2.3453156829     1.1364932437
C     3.1537817471     1.0732546646     1.6421685436
C     3.2617086952     -0.1773910435     0.914448937
C     1.2475792531     2.4761466405     1.9229535514
C     2.3375518717     2.1167528724     1.0149691584
C     -1.0091076522     1.4669336281     2.0915743402
C     -0.1052700559     2.3962312829     1.4117517125
C     -2.085371838     -0.6628843092     1.4222786145
C     -1.9951724617     0.7855511418     1.2706603245
C     -2.6735927343     -1.4155729848     0.3786493437
C     -0.6036613381     -2.74120353     0.2390024849
C     -1.8597772701     -2.4320857204     -0.3045871148
C     1.8094233968     -2.3763604167     -0.2039936042
C     0.4976456245     -2.7526229824     -0.6807267453
C     2.9041940711     -0.1963361765     -0.5224338206
C     2.3270477587     -1.3640823125     -1.0964061016
C     2.1150158566     2.1360327972     -0.3195416582
C     2.5301670334     1.0344097072     -1.182224461
C     -0.3048015892     2.644521321     0.0097124672
C     0.8659164377     2.6439945729     -0.8267207488
C     -2.4727007558     1.3991558681     0.0443632857
C     -1.5904587939     2.3528392599     -0.630827721
C     -3.4564361754     -0.7848555538     -0.5729176478
C     -3.395943192     0.6417212745     -0.7694568256
C     -2.0934830203     -2.2952643398     -1.7212625391
C     -3.2381321143     -1.4318791742     -1.8614345872
C     0.3314464527     -2.2449729609     -2.0068222988
C     1.4313266269     -1.3160105939     -2.2250104773
C     -0.959491176     -2.0558615042     -2.5897110594
C     1.7213816799     1.0835566555     -2.3397554319
C     0.7795059199     2.211571181     -2.1708513199
C     1.1823502615     -0.1105056393     -2.9388214931
C     -1.6572339452     2.4563054012     -2.0568043487
C     -0.4345242562     2.2557471198     -2.8188559805
C     -3.5196085814     0.8668867643     -2.1712939733
C     -3.3543417144     -0.4773032398     -2.8609493306
C     -2.6764027574     1.7618298869     -2.814554325
C     -1.0750480464     -1.0271432727     -3.6055135013
C     -0.0388892018     -0.0206741323     -3.6802150689
C     -0.7030633631     1.2836607964     -3.863601789
C     -2.3297995163     -0.3285691265     -3.8109721112
C     -2.0677390446     1.0962075322     -3.9769659223


