56

 C     1.3608341258     -0.0018870763     4.2606050154
C     0.5631758573     -1.2155663549     4.2253643317
C     1.3322689403     -2.22801138     3.6699529852
C     2.5952500341     -0.2302847611     3.5101922519
C     2.6442416812     -1.6212187155     3.2297498603
C     2.617417151     0.6814877547     2.41133847
C     0.6253803844     0.9896146942     3.6122019484
C     1.4256548415     1.546140883     2.5582668122
C     -0.7369898764     -0.8839715268     3.6211607584
C     -0.6972284096     0.507702631     3.2360262651
C     -1.3102287015     -1.7735243369     2.7114263538
C     0.8253185232     -3.0413828796     2.5838586878
C     -0.5221061428     -2.8993158736     2.1723147382
C     2.8800781702     -2.0773934135     1.9379051672
C     1.8120360055     -3.0227000984     1.561217079
C     2.9139485937     0.2287735806     1.0720789051
C     3.0498471452     -1.1835354934     0.8379552327
C     2.4598784039     1.0354886132     -0.0282449726
C     0.8066692064     2.1033427687     1.4595210059
C     1.5908301662     2.1483245849     0.2459792455
C     -1.3355877865     0.9956993609     2.0549535171
C     -0.6556297237     1.9901545008     1.254813745
C     -2.1649801002     -1.2713941923     1.6721009904
C     -2.253263088     0.114633283     1.3326791989
C     -0.8575697311     -2.9886696537     0.7836406504
C     -2.0662633217     -2.2130147851     0.5835029925
C     1.4818654997     -2.8208320779     0.2015336826
C     2.2891117159     -1.7266307274     -0.2813049769
C     0.133485469     -2.9050699092     -0.2567172498
C     2.2779025708     0.4566474552     -1.3595643277
C     1.8791691427     -0.9383258981     -1.3827931482
C     1.8442668875     1.2859017068     -2.4028174618
C     1.0627455734     2.9014365403     -0.7945424052
C     1.4935268207     2.6664403451     -2.1151622612
C     -1.2429293474     2.4695171356     0.0123101225
C     -0.3793944708     3.2282137376     -0.8458725467
C     -2.7667842092     0.4981628968     0.0204223938
C     -2.4126283944     1.7957648448     -0.5728574432
C     -2.4711989846     -1.8621890745     -0.6574863078
C     -3.1079444041     -0.5726380667     -0.873479847
C     -0.199375708     -2.274819742     -1.5311579972
C     0.7090943439     -1.3246770523     -2.1668457484
C     -1.5908800963     -2.0863322109     -1.8060834089
C     0.8964286246     0.8407854456     -3.3958364409
C     0.2284730519     -0.4132559135     -3.2345978576
C     0.5098520901     3.1279188876     -3.0253032203
C     -0.6938049464     3.4627353867     -2.2126257054
C     0.1459440293     2.0528336774     -3.8426939381
C     -2.6824836097     2.0239982411     -1.9795828298
C     -1.8081720618     2.8370889572     -2.7679407437
C     -1.2868982836     1.9998354309     -3.9031290111
C     -3.1171381003     -0.3704214572     -2.2734056718
C     -2.0307081574     -1.2418651243     -2.8258425102
C     -1.1815251015     -0.458935696     -3.6245210679
C     -2.9691601068     0.8696939463     -2.8151120684
C     -1.9138222156     0.7895262111     -3.8575512289


