56

 C     1.5305277458     -0.0546231757     3.9039517802
C     0.6962079768     -1.2607218954     3.7116391835
C     1.2817655548     -2.0849794578     2.7300016984
C     2.5546962221     -0.0656061758     2.9876044066
C     2.5307246233     -1.3787855212     2.3388447697
C     2.4277698233     1.137246287     2.1371810251
C     0.6942815179     1.099345061     3.6896002127
C     1.2513128775     1.8529332691     2.5936053229
C     -0.6599142516     -0.8350766723     3.6101656126
C     -0.6427390553     0.647406314     3.5949985143
C     -1.4886987754     -1.4956944072     2.7012315406
C     0.4654010229     -2.6985445964     1.7061299545
C     -0.9441053592     -2.4860594234     1.8004147264
C     1.0437391581     -2.9207534128     0.3635620706
C     2.963334247     -1.447197726     1.0633904609
C     2.3593334199     -2.3891041945     0.1076286687
C     2.7550700014     1.0718519039     0.7715275649
C     3.3072934417     -0.2038743731     0.3174032462
C     2.0400854495     1.9114688975     -0.2042413356
C     0.4071399325     2.4854367005     1.6443900336
C     0.8828608857     2.6565817168     0.2708084135
C     -1.5140006119     1.3293343956     2.7260900819
C     -1.0171349162     2.3466978531     1.8590346514
C     -2.5489710963     -0.7802262454     1.9950579951
C     -2.5842242357     0.6167882878     2.0307459029
C     -1.7840028233     -2.4935320268     0.6123214368
C     -2.7878594648     -1.4511104244     0.7378713447
C     0.1795166011     -3.0069498189     -0.7728310998
C     -1.2515854923     -2.7833162094     -0.6339025983
C     0.5590282279     -2.515951641     -2.080707222
C     2.7009280899     -1.9204923211     -1.1594059687
C     3.230583233     -0.5418061937     -1.0110812673
C     1.8185778269     -1.9177890316     -2.2548849195
C     2.1272722465     1.5742824396     -1.63890219
C     2.6508416523     0.2856393215     -2.008026969
C     1.8926091986     -0.5916816448     -2.8776026021
C     1.1734247456     2.1194129218     -2.5545660979
C     -0.0878016284     3.1091189321     -0.6963771933
C     0.1222432281     2.9450929899     -2.0586187549
C     -1.955906254     2.4599256404     0.7578937537
C     -2.9144579126     1.3612987164     0.8382895969
C     -1.5393946027     2.929982899     -0.4570484006
C     -3.2012335696     -0.736160337     -0.3908507906
C     -3.2984290377     0.7103886614     -0.3359473931
C     -1.73806344     -2.0961834898     -1.8180074755
C     -0.6131884592     -1.9298445286     -2.720352922
C     -2.6997414786     -1.0872163628     -1.7049135148
C     0.7902773947     -0.0968130381     -3.5875695867
C     0.5715248461     1.2889137961     -3.5656898817
C     -0.5129018241     -0.788579735     -3.5124795048
C     -1.1556496408     2.5530046831     -2.705275105
C     -2.1451744356     2.4275069825     -1.6902576695
C     -2.91881878     1.2492111927     -1.6335783169
C     -2.5811031375     0.1284734474     -2.5023587728
C     -0.8802462196     1.5179445874     -3.5782167731
C     -1.5430246984     0.243386192     -3.4476896437


