56

 C     1.4538199137     0.0578737841     4.1817941416
C     0.5853730542     -1.1157238001     3.9220181438
C     1.2771432492     -1.9911146259     3.0961811762
C     2.5758494518     -0.0403838262     3.2764161337
C     2.54682843     -1.3093189888     2.6969630347
C     2.578151538     1.1135031616     2.3641594901
C     0.7161678788     1.1531476763     3.7516253434
C     1.4225396242     1.8899454203     2.6893212503
C     -0.7240883246     -0.6889933867     3.5148468444
C     -0.6682710225     0.778115759     3.5186726038
C     -1.4076735784     -1.3288307166     2.4409870101
C     0.6903464443     -2.4943652271     1.9076981919
C     -0.6726803763     -2.2722070557     1.5902981933
C     2.726527019     -1.4893675905     1.3103251606
C     1.6632535954     -2.3428017035     0.8327779968
C     2.9914712534     0.9704495052     1.0023211568
C     3.1828813188     -0.3950404836     0.4775706047
C     2.4744287183     1.9230882284     0.0720187247
C     0.6768844886     2.5508810788     1.6675613855
C     1.2797107307     2.6712220301     0.3889262488
C     -1.3957961492     1.4909209464     2.5908924738
C     -0.7581418284     2.4698295811     1.6908601837
C     -2.4956475867     -0.5781313346     1.8099079695
C     -2.4552392173     0.8519895511     1.884144186
C     -3.1278487534     -1.1359538143     0.6771663471
C     -1.088298183     -2.482794398     0.1926950757
C     -2.4148162007     -2.1581081839     -0.1318984558
C     1.3037744653     -2.3832490802     -0.5268469423
C     -0.0799844975     -2.5457609876     -0.9019956683
C     3.0769264666     -0.6159265555     -0.8938784205
C     2.2479323842     -1.732843517     -1.4184635009
C     2.507074066     1.7060257454     -1.3547982319
C     2.9552067417     0.4623187937     -1.8451800175
C     0.500291311     2.7901030311     -0.8211958884
C     1.3083395954     2.2993025921     -1.9250525357
C     -1.5123713153     2.4894024931     0.4968618
C     -2.6792205864     1.6241606533     0.6788677323
C     -0.9079367366     2.620048689     -0.8079939628
C     -3.8021146754     -0.2900729092     -0.2513251677
C     -3.3577831716     1.0719159646     -0.3775838295
C     -2.805639146     -1.9718307547     -1.5009562601
C     -3.6709578437     -0.8646439821     -1.5483179315
C     -0.4609687159     -2.1966058595     -2.2779381597
C     -1.8078342516     -1.8131954335     -2.5300621085
C     1.889346874     -1.4479925347     -2.7203378238
C     2.3512112273     -0.0762539319     -3.0273293006
C     0.5329919737     -1.6099748873     -3.1612202138
C     0.6801096872     1.7276510448     -3.0341577869
C     1.2838834734     0.5546075384     -3.6269200704
C     0.2121947399     -0.4193742667     -3.8829050852
C     -1.5739503685     1.9752160884     -1.9631736023
C     -2.8254787125     1.26931825     -1.7602495285
C     -3.1221681863     0.092077313     -2.4848856978
C     -2.0952134126     -0.5597757695     -3.2341149897
C     -0.7589696072     1.5311806245     -3.0437638444
C     -1.0215673069     0.216340061     -3.6713335688


