56

 C     1.446996655     -0.0090545     4.1913885699
C     0.6440394314     -1.1911014033     4.0456877534
C     1.340860588     -2.1340832316     3.2472687128
C     2.5798025508     -0.1605537778     3.2901676461
C     2.5392266268     -1.4432404884     2.7308738682
C     2.6003357148     0.9360389544     2.3528391368
C     0.6745152576     1.0347478309     3.6203052928
C     1.3886572875     1.6958238462     2.5679558776
C     -0.7078075716     -0.8152437158     3.6569607107
C     -0.6752494234     0.6149322818     3.3316186286
C     -1.4083375895     -1.6438991755     2.7910831389
C     0.6954841364     -2.7207042058     2.1305811047
C     -0.6987483507     -2.649504503     2.0036306666
C     2.5975953866     -1.63418021     1.3073314023
C     1.4927062812     -2.4765909735     0.9220716524
C     3.0381806303     0.7501697296     1.0199777626
C     3.0132171525     -0.5844641294     0.4315824782
C     2.7079424759     1.8329872105     0.1556667594
C     0.6774301888     2.29712567     1.473495887
C     1.4705420232     2.589373309     0.3474666795
C     -1.3978080659     1.1392622502     2.2211697144
C     -0.7429217995     2.0850925251     1.288219305
C     -2.4411655693     -1.0883573894     1.9649299946
C     -2.4990634824     0.3230076434     1.7282107487
C     -1.298161309     -2.6500419911     0.7043615699
C     -2.5491556709     -1.9231367316     0.7952218948
C     0.9133444806     -2.3903880984     -0.3692733925
C     -0.535149656     -2.5791253655     -0.5083392505
C     2.7270995947     -0.7351405666     -0.9866077102
C     1.6664320381     -1.6635725269     -1.3901673677
C     2.9273598784     1.6992807903     -1.2046940804
C     2.9942214833     0.4152167488     -1.8243924276
C     0.9129184287     2.8769939534     -0.9475242465
C     1.9216341563     2.5079386697     -1.9246786815
C     -1.3140783721     2.3249176339     -0.0318197895
C     -0.4597882295     2.6660530658     -1.2030791216
C     -3.1812960696     0.7535403858     0.5580464454
C     -2.6100151788     1.7929857998     -0.2870389109
C     -3.2149953365     -1.4760811895     -0.3304242479
C     -3.8523085689     -0.18405539     -0.3012009847
C     -1.2276322768     -2.1234314631     -1.7150255247
C     -2.6034423722     -1.6772031918     -1.6374057883
C     0.9945767439     -1.444132035     -2.6346087643
C     -0.4293934687     -1.6151850892     -2.7762324781
C     2.3297790292     0.5711910024     -3.0835713096
C     1.6136064535     1.8889517051     -3.0971582125
C     1.391900116     -0.3459278602     -3.4801481531
C     -0.8226186411     2.1611819167     -2.5607088829
C     -0.9268084733     -0.4898231145     -3.596888958
C     0.2326222078     1.6757084916     -3.4452439608
C     0.1599372217     0.3361802363     -3.9154404473
C     -3.0273461234     1.4974415724     -1.621139791
C     -3.8433060066     0.3252722162     -1.6287204521
C     -3.0540808853     -0.5757724721     -2.4252118808
C     -2.0536740171     1.4867852357     -2.7019803707
C     -2.1186117409     0.1457941341     -3.2493882154


