56

 C     1.3340494326     -0.2053360061     3.697571201
C     2.5186018476     -0.4201890299     2.9979359168
C     2.4136064146     -1.702957817     2.3064655552
C     0.4699214647     -1.367390761     3.5119505665
C     1.1427149047     -2.2882099718     2.6567919332
C     -0.8365021521     -0.9186400558     3.1977348234
C     0.5390596154     0.9751615679     3.4708167387
C     -0.8321519245     0.5351072851     3.1609848316
C     1.0974976249     2.0299210464     2.775891903
C     2.992026848     0.5725280545     2.0798760735
C     2.4097241218     1.8513266271     2.1309405593
C     2.7287843059     -1.4727314518     0.9559055682
C     3.1672736876     -0.0765898867     0.7884403378
C     2.0080018356     -2.1348139821     -0.1073199065
C     0.3955689574     -2.897854925     1.6359011121
C     0.9249788542     -2.9761396739     0.2898223308
C     -1.6628494013     -1.6750601556     2.2884075304
C     -1.0370760995     -2.7430312594     1.5594604932
C     -2.7039437273     -0.9545340606     1.6361979532
C     -1.6456086521     1.2365989656     2.2307614838
C     -2.6721192583     0.4825455615     1.5775651661
C     0.255917712     2.8246045524     1.8605271422
C     -1.0848768724     2.4210344862     1.5405022715
C     2.3707689609     2.5863507999     0.9250973014
C     1.0972079343     3.2960617508     0.8322086559
C     2.9471247529     0.6028613029     -0.4306562678
C     2.6541286386     2.0208729605     -0.3333639479
C     1.9971415055     -1.5367555558     -1.4400950189
C     2.4627400152     -0.1465404352     -1.6096419324
C     1.032210046     -2.0568273035     -2.3679773378
C     -0.1971922778     -3.1976826426     -0.5873709246
C     -1.4302428373     -3.030159542     0.1900268481
C     -0.1361361689     -2.8013752656     -1.8957948344
C     -3.2271221612     -1.4281671857     0.3806805812
C     -2.5367115924     -2.4279074881     -0.3921397288
C     -3.1610999967     0.8507745929     0.2490329259
C     -3.5259920858     -0.3400505911     -0.4622139219
C     -1.5370328036     2.6995617039     0.2077990941
C     -2.5254711182     1.8627616788     -0.4464852365
C     0.7028892086     3.356323838     -0.5232139388
C     1.7340766876     2.6412624611     -1.2898104944
C     -0.6415506888     3.1423068847     -0.8221493837
C     1.9060587603     0.6182037345     -2.6769351843
C     1.3962607448     1.9757233464     -2.4274254786
C     0.5744864836     -1.2747973961     -3.4543525452
C     0.9946446737     0.035801365     -3.5985175862
C     -1.339449059     -2.2402744118     -2.5602929732
C     -2.4724730883     -1.9498182986     -1.7732324441
C     -3.012176764     -0.6091482194     -1.785262749
C     -0.9029921516     -1.3171297745     -3.5157230395
C     -2.184746213     1.7033630248     -1.8705924987
C     -1.0146758982     2.4889096814     -2.080961817
C     0.009270405     2.0338109278     -2.9447876204
C     -0.2098688962     0.8679908442     -3.6867871245
C     -2.3749908956     0.4393437724     -2.545212235
C     -1.3716836495     0.0390002904     -3.5069807182


