56

 C     1.4047801393     -0.1180694472     4.7554657616
C     0.5703696878     -1.2573817541     4.714946755
C     1.1824578318     -2.4089418244     4.1713947437
C     2.5338994096     -0.4828030864     3.9081654232
C     2.3967449706     -1.8967819222     3.5477271173
C     2.6146149328     0.463449179     2.8500607664
C     0.6751640908     0.9011306576     4.0384479707
C     1.4755386961     1.3910683464     2.9869702436
C     -0.7043316788     -0.9529052498     4.006180427
C     -0.6404988301     0.4094654515     3.6111192283
C     0.3145427581     -2.8146857528     3.0910606803
C     -0.8694945849     -1.9504944872     3.0093816078
C     2.3538595384     -2.2243849094     2.1648249097
C     1.0607944882     -2.8825647143     1.897415763
C     2.9755216673     0.0924415724     1.5068577054
C     2.837326595     -1.3324920166     1.1435862085
C     2.6912967273     1.0398633884     0.5006321896
C     0.8844291976     2.0065112155     1.8427214089
C     1.6973811845     2.0715963428     0.6962993048
C     -1.181653583     0.8008605448     2.3454833978
C     -0.5467431757     1.8591790757     1.5925920805
C     -1.4134947025     -1.5892389015     1.7360573695
C     -1.8172672124     -0.2115346341     1.5220840544
C     0.4216051255     -2.7628345919     0.6267822297
C     -0.9462675487     -2.2584253557     0.5427769389
C     2.4332761311     -1.6197253287     -0.1774455294
C     1.2613682642     -2.4218142705     -0.4492863584
C     2.6004551454     0.6991457292     -0.9077140623
C     2.4704203193     -0.6414056688     -1.2495042173
C     1.1513479121     2.4492381835     -0.5771277238
C     1.7835143266     1.6676944937     -1.6164461502
C     -1.0907716268     2.2354345122     0.3238399127
C     -0.2126007792     2.7652271539     -0.7157079785
C     -2.3604771491     0.1641552709     0.2552404331
C     -2.2614141418     1.5476340001     -0.1726703269
C     -1.4902775637     -1.8821824369     -0.725932675
C     -2.493226762     -0.8424836285     -0.7820357243
C     0.7153340919     -2.0441714455     -1.722717041
C     1.5254932913     -0.9918936368     -2.2945255188
C     -0.6754125153     -2.0041262024     -1.9316223753
C     1.1176073226     1.3773927098     -2.8260630566
C     0.9793836225     -0.0475202461     -3.1894043753
C     -0.6870393929     2.8867267888     -2.0564664863
C     0.0295165277     2.2513271083     -3.1787559553
C     -2.8084116897     1.9088176594     -1.4447599783
C     -2.0629824005     2.7948616961     -2.3472964666
C     -3.0373575167     -0.4511741342     -2.0463911535
C     -3.3926069959     0.9063353909     -2.2632641119
C     -1.1017642855     -1.3869166431     -3.1459872301
C     -0.2312681614     -0.4364848672     -3.8640668223
C     -2.4235516924     -0.9209874198     -3.2945745631
C     -0.9305613188     1.9132504288     -4.1714516155
C     -2.2316153051     2.3968965321     -3.7251260595
C     -3.0252721626     1.229402401     -3.6706060952
C     -1.0677656549     0.4993073036     -4.5320106892
C     -2.4539155648     0.1060114695     -4.3091543017


