56

 C     1.4378126425     -0.1735617122     4.3117608965
C     0.6368452105     -1.2828608477     4.3990995117
C     1.2199269514     -2.3599519588     3.5908805404
C     2.5512317935     -0.4752721488     3.3835473838
C     2.4589789548     -1.8756083188     2.9982163305
C     2.5300164034     0.5025394258     2.3861238277
C     0.6572394181     0.9240976246     3.7715973839
C     1.3776946478     1.4210263092     2.6826265704
C     -0.6834991332     -0.9537411849     3.8615537942
C     -0.6896680698     0.4471421626     3.4790010617
C     0.1934127222     -2.8537207492     2.7561282137
C     -0.9718420194     -1.8983902211     2.8655038908
C     0.5412430331     -3.3503843057     1.4860126917
C     2.7194881015     -2.2097447694     1.6534696603
C     1.8586170532     -3.1377959234     1.0124889144
C     2.76848155     0.1845966247     0.9864532498
C     2.9449195456     -1.1634374628     0.6366040572
C     2.2980360463     1.1092134285     -0.0419256246
C     0.7112418981     2.0190367929     1.6123276223
C     1.4602850403     2.2009367911     0.3755118039
C     -1.3286076109     0.850512233     2.2857199122
C     -0.7155661922     1.9087074377     1.4906513432
C     -1.6911504993     -1.5247189659     1.6938834832
C     -2.0371591322     -0.1308367757     1.4728111446
C     -0.3500509125     -3.1457476243     0.3513519139
C     -1.510410556     -2.3515695734     0.498824439
C     1.7581750714     -2.8200463903     -0.4100743292
C     2.4243400889     -1.6164788262     -0.6706348828
C     0.4385677211     -2.9788604232     -0.8707984678
C     2.1586111432     0.6918108592     -1.4424340575
C     1.9223089602     -0.7262667354     -1.6617608417
C     1.6443853923     1.5998310715     -2.3770836962
C     0.8638382738     3.022269859     -0.5695079637
C     1.2461238178     2.9138823912     -1.9432648432
C     -1.3586621271     2.4149810993     0.2946241898
C     -0.5785984847     3.2864687323     -0.5269481157
C     -2.6398287495     0.2941896208     0.2097189623
C     -2.475963419     1.671466307     -0.2891564176
C     -2.1089138758     -1.913610294     -0.6965436147
C     -2.9275268581     -0.7316147294     -0.7481787771
C     -0.0239980395     -2.2038190915     -1.9580008488
C     0.7786737214     -1.1064887007     -2.4884305258
C     -1.442631383     -2.0387748299     -1.9842041445
C     0.7058879024     1.2022633242     -3.438144267
C     0.1462304588     -0.1129976095     -3.3831242886
C     0.1912377173     3.3627521567     -2.7539325849
C     -0.9672384199     3.5829114943     -1.8759634947
C     -0.1268606085     2.3677420108     -3.7213608213
C     -2.8240051856     1.9765549633     -1.6617416428
C     -2.0492006533     2.908669176     -2.4205183748
C     -1.5446297727     2.2099618025     -3.6756979671
C     -3.0972404572     -0.4131366804     -2.1311657446
C     -2.0321054518     -1.1367668767     -2.8622308094
C     -1.2922476705     -0.2338171888     -3.6623941493
C     -3.0666716837     0.877333716     -2.5671908324
C     -2.1095743154     0.969123474     -3.7140806658


