56

 C     1.4071885113     -0.0471793688     3.7000854541
C     2.5407555609     -0.2803332073     2.9200528961
C     2.483096437     -1.6274821307     2.3551904017
C     0.5567824175     -1.2282364308     3.5941269671
C     1.2625649931     -2.216089383     2.8183088955
C     -0.71299692     -0.7997234308     3.1586124456
C     0.6224907529     1.12458999     3.4623865739
C     -0.7101657469     0.6655140496     3.0768386302
C     1.2025699289     2.1881848456     2.7579014097
C     2.9231351294     0.6564156578     1.8980368558
C     2.375534546     1.9363243073     1.9124994144
C     2.6591165167     -1.490165519     0.9549481612
C     2.9871816777     -0.094154487     0.6543446873
C     1.9059073677     -2.2829892627     0.0118937235
C     0.5283014784     -3.009673425     1.9602530672
C     0.9878015225     -3.2356116843     0.5850297118
C     -1.4952075368     -1.5938090563     2.238662547
C     -0.9123056173     -2.8669328082     1.8743356066
C     -2.3907415491     -0.9098903815     1.3005673898
C     -1.4903078248     1.3432194647     2.1054375652
C     -2.3486186594     0.5611784083     1.1973956817
C     0.3363741961     3.0194894876     2.0069455046
C     -0.9855848745     2.6245434617     1.6597845599
C     2.1650668007     2.6074880735     0.6474654663
C     0.9900464255     3.4187781908     0.7880574621
C     2.6678618962     0.4810416875     -0.5899154712
C     2.3516483279     1.9284136492     -0.5939564232
C     1.6414497817     -1.7445901579     -1.3163530732
C     2.139881228     -0.4026252423     -1.6424839113
C     0.4961036289     -2.2887365899     -2.0748792912
C     -0.1101995848     -3.7193517005     -0.1531845075
C     -1.2964309585     -3.5009787254     0.6656073539
C     -0.3903668442     -3.2236874594     -1.4527310002
C     -2.8268174223     -1.6435331872     0.1434581727
C     -2.2834362759     -2.9496147633     -0.1406880869
C     -1.8205062149     -2.9473041058     -1.5061549918
C     -3.0299000849     -0.9942304241     -1.1317216562
C     -2.3398427652     -1.8054743493     -2.1521374991
C     -2.7080457998     1.1647975602     -0.0404765621
C     -2.9783203835     0.3841125819     -1.2212276046
C     -1.2495307792     3.1112941736     0.31211957
C     0.0257242486     3.5924376282     -0.2349942889
C     -2.0969554348     2.4037558226     -0.5074054601
C     1.6159847625     2.4609510406     -1.712600935
C     0.3832824122     3.2507302947     -1.5256151585
C     1.6392913159     0.2329940545     -2.8154526645
C     1.3996347402     1.6501810972     -2.8182429607
C     -0.1077964775     -1.4695387472     -3.1038904715
C     -1.5622479885     -1.1654147981     -3.1008197881
C     0.5437499743     -0.3306099806     -3.5374910197
C     -2.408240073     1.052311339     -2.3952571106
C     -1.8562086453     2.3064092327     -1.9536637688
C     -0.6192168928     2.7695124741     -2.4700676269
C     0.0656744562     1.9388326995     -3.4069078057
C     -1.7165639242     0.2573069697     -3.3458261841
C     -0.4576457663     0.7371525747     -3.8162008436


