56

 C     1.4712683517     -0.1832009112     4.1635649296
C     0.7193842966     -1.3060659938     4.3132207951
C     1.2120141742     -2.3444317576     3.4149686622
C     2.4607778875     -0.4163232792     3.1050099139
C     2.2476956785     -1.754877031     2.5763174016
C     2.3506568416     0.6525657841     2.2214044339
C     0.5957607691     0.9257597018     3.7308001674
C     1.2210047229     1.5401665711     2.6546571914
C     -0.6750168278     -0.9839158557     3.9146711333
C     -0.7438157994     0.4216109593     3.5351992226
C     0.0832260691     -2.8742212542     2.7708431778
C     -1.0985381305     -1.9626733324     3.0230657017
C     0.22610538     -3.3854528461     1.4853937071
C     2.2135015157     -1.945889268     1.145169816
C     1.3201652758     -2.9377287527     0.6450236517
C     2.529299743     0.5058490145     0.8128509609
C     2.480679463     -0.8095286498     0.2341144496
C     2.2393707933     1.6828977152     0.0224920718
C     0.4587432503     2.1842246946     1.6585797788
C     1.1956401464     2.6080750645     0.483643716
C     -1.4650965907     0.8022519933     2.368800154
C     -0.9478862866     1.9134226929     1.5657298167
C     -1.982770356     -1.6217889465     1.9297389567
C     -2.2466106362     -0.2135879815     1.6624650417
C     -0.922183193     -3.4260975126     0.651867084
C     -2.0276522642     -2.5483301966     0.8336731011
C     0.8392986152     -2.931258604     -0.7366228149
C     -0.5172413761     -3.3617961855     -0.7249338769
C     2.1603498802     -0.8963962245     -1.1948797101
C     1.2507982695     -1.94754018     -1.6720023556
C     2.4413402571     1.5804422817     -1.3686922024
C     2.2765468688     0.2701911754     -1.9755002386
C     1.9152655331     2.5668076978     -2.2513239076
C     0.5076266373     3.387728906     -0.452427017
C     1.00626421     3.5228749779     -1.7964166916
C     -1.6078288948     2.3161647393     0.3354586525
C     -0.9460774164     3.2133853947     -0.5411333318
C     -2.7662986355     0.1376543533     0.3755619626
C     -2.562550241     1.4033870129     -0.2298676171
C     -2.456604916     -2.1359915957     -0.4954175087
C     -1.5068479544     -2.6862303418     -1.4801659081
C     -2.9062034017     -0.8531640938     -0.6952709915
C     0.3194539046     -1.607365124     -2.7156988726
C     -1.0942037113     -1.9049281334     -2.5436088093
C     1.5023840853     0.4844167974     -3.208750584
C     1.3302317877     1.8769864106     -3.4254901855
C     0.4185081213     -0.383254028     -3.4526752811
C     -0.1250372184     3.5101574168     -2.7138134781
C     -1.2700496529     3.2364886754     -1.9555747643
C     0.0544475565     2.4321194386     -3.6653183735
C     -2.6491866561     1.253041336     -1.6896374264
C     -2.7012685285     -0.1678734179     -1.9632552806
C     -1.820343809     -0.6989393957     -2.9094283692
C     -0.9212909491     0.1807804844     -3.633606481
C     -1.9818324661     2.1117210805     -2.5434319278
C     -1.1053741837     1.5676785231     -3.5993416362


