56

 C     1.2749308722     0.2161238011     3.8499041784
C     2.4831754743     0.0320703042     3.1639247632
C     2.4965812941     -1.3353664199     2.6773286167
C     0.4294588669     -1.0149076963     3.6419872549
C     1.1775353158     -1.9093096762     2.8594526809
C     -0.8608341229     -0.5890563476     3.2416687579
C     0.4841330797     1.3221993104     3.6218921028
C     -0.8894200763     0.8464933725     3.3684893935
C     0.8089960707     2.2514366366     2.5810320237
C     2.8215916923     0.8919703198     2.0662639002
C     1.9878906433     2.0370593965     1.7671900578
C     3.0766985689     -1.3436177482     1.4045732614
C     3.2821341342     0.0346323236     0.9784673184
C     2.6129346965     -2.3019913434     0.4709210597
C     0.5206407348     -2.630391627     1.7775799307
C     1.3391657462     -3.0053395807     0.6839559144
C     -1.564500556     -1.2337706838     2.1602258132
C     -0.9118581604     -2.3757835803     1.5317162865
C     -2.5163306961     -0.4146861621     1.3982346778
C     -1.4563930756     1.6305000055     2.3817212344
C     -0.4401114688     2.5859763541     1.9291746901
C     -2.4039959516     1.0518689674     1.4574956024
C     -0.4949317474     3.0716029564     0.6127952264
C     1.8890684845     2.4268593274     0.39000471
C     0.7203079361     3.0663068546     -0.1426863498
C     3.0854803276     0.382033296     -0.394020192
C     2.4612817005     1.6309496067     -0.6756571286
C     2.7352106097     -2.0276675758     -0.8961932878
C     2.8747938238     -0.6821633228     -1.355344921
C     0.7809285596     -3.2583479742     -0.6400386789
C     1.6555743844     -2.6632620296     -1.6224120839
C     -1.4382946602     -2.8187303491     0.278693745
C     -0.5782541387     -3.1998136951     -0.8360795496
C     -3.0633721073     -0.9621969964     0.2032157689
C     -2.5652065622     -2.1920738257     -0.2760344792
C     -3.3923172386     -0.1405719567     -0.9645975781
C     -2.6878756405     1.8224459214     0.3209816571
C     -1.7434286897     2.8766995712     -0.104373428
C     -3.2569603795     1.2372520586     -0.8819672125
C     -1.7699325757     2.9536788103     -1.4972516415
C     -2.7265463545     1.9636347655     -2.0096502533
C     0.6725290228     2.8131730274     -1.5728750392
C     1.6752111257     1.8259987605     -1.8723036398
C     -0.547764526     2.8101679164     -2.2498492957
C     1.9534998541     -0.5278321619     -2.4493369665
C     1.1656276448     -1.7729618402     -2.573243794
C     1.3570051462     0.719163556     -2.732083171
C     -1.1144891493     -2.5643099486     -2.0515031868
C     -2.4041299916     -2.0927704207     -1.7279180893
C     -2.898388442     -0.8482958169     -2.1659442865
C     -0.2532315225     -1.740546809     -2.8749546189
C     -2.167949748     1.3005148819     -3.0858142525
C     -0.794916276     1.804211374     -3.2629320959
C     0.0496366362     0.7058576845     -3.3819882779
C     -2.1479034922     -0.1322718417     -3.1344352209
C     -0.7826850764     -0.5328437105     -3.3874019272


