56

 C     1.6283512902     -0.1359563906     4.6746712701
C     0.8271518558     -1.2405342181     4.9316188336
C     1.2915583987     -2.3480595373     4.1312056314
C     2.5910941205     -0.4512458471     3.5922304248
C     2.3593786332     -1.8049722361     3.2575746571
C     2.4524844637     0.568376874     2.5976316238
C     0.8441096885     1.0121145519     4.2643737741
C     1.3876542888     1.4987796135     3.0617686469
C     -0.53070891     -0.849811586     4.4874995529
C     -0.5599848914     0.585008033     4.2444943768
C     0.2503472602     -2.5968934705     3.2205034965
C     -0.9169198586     -1.7141663792     3.4362533356
C     2.0630325044     -2.0941513037     1.886651813
C     0.721971173     -2.6924730317     1.8609415432
C     2.4767321791     0.2542625451     1.2126918336
C     2.3246047786     -1.1459959819     0.8750391677
C     1.9736094589     1.2235489506     0.2203488811
C     0.5544991985     2.1393511034     2.079047892
C     1.0303826003     2.2254072719     0.6955017834
C     -1.3430517011     1.0346043518     3.207141336
C     -0.8436575162     2.062688951     2.2945631783
C     -1.6730266294     -1.2426938636     2.2948368896
C     -2.0826685788     0.1206522137     2.3343330408
C     -0.1240807581     -2.4528849964     0.7817182358
C     -1.4277552748     -1.7910181505     0.957920424
C     1.7425607899     -1.4356422506     -0.4054412304
C     0.5429065783     -2.1793655957     -0.466459793
C     1.9978660498     0.8892530112     -1.1754165719
C     2.0199423222     -0.5458697824     -1.504986355
C     1.353411608     1.7482408387     -2.1729043585
C     0.1440885275     2.7587013629     -0.2643203624
C     0.3477217994     2.6235784354     -1.6724542083
C     -1.7161070709     2.0958995114     1.1621298773
C     -2.40245184     0.8134360172     1.1258818735
C     -1.2857943602     2.6523213557     -0.0169096985
C     -1.9987153271     -1.1838373528     -0.2107707082
C     -2.5410114582     0.1640116457     -0.1191991595
C     -0.2390597611     -2.1527870493     -1.6706709384
C     -1.5928687449     -1.6523010537     -1.5498838417
C     1.6198469505     -1.0116660237     -2.7543407067
C     0.4898175867     -1.9437881281     -2.8605598537
C     1.1820474098     1.2948043005     -3.5373990663
C     1.4655632744     -0.1172263747     -3.8751198384
C     0.0380320118     1.6290954643     -4.2995439074
C     -0.9616054744     2.6107584943     -2.3279190448
C     -1.8879400974     2.2579818229     -1.2524640116
C     -2.5408517586     1.0025378895     -1.3212581892
C     -1.1423520901     2.1076416251     -3.5950562741
C     -2.1440652793     -1.0562159264     -2.7152933686
C     -2.5671585402     0.3668854699     -2.6117901983
C     -2.151132844     1.0552526389     -3.7657466106
C     -0.1816214936     -1.6396679112     -4.0883847278
C     0.5889550517     -0.6264203013     -4.848618044
C     -0.3292963791     0.4530558873     -5.1215500897
C     -1.5303945654     -1.2265042662     -3.9968856568
C     -1.5954406594     0.0838987179     -4.6872266194


