56

 C     1.3292940797     0.1136774057     3.916130706
C     2.4869546636     -0.0686795739     3.1414834394
C     2.4417544525     -1.437294383     2.5806191206
C     0.4770075575     -1.0873233315     3.7731044842
C     1.1721566419     -2.0093200676     2.9482280685
C     -0.8446347182     -0.6702401059     3.4265809445
C     0.5323456764     1.2351104117     3.6781360424
C     -0.8555102439     0.7605412094     3.4633014583
C     0.8377503274     2.1575847846     2.6504893612
C     2.8203682919     0.8291787569     2.1011704864
C     1.9983182334     1.9798578317     1.8139730932
C     2.8581992921     -1.4081115155     1.250155784
C     3.25905638     -0.0186645624     0.974506149
C     2.182318705     -2.1712451089     0.214711513
C     0.4502716746     -2.6792123798     1.9400444038
C     1.0277433994     -2.8941038675     0.6257302492
C     -1.587901397     -1.3244870489     2.3782281762
C     -0.9640693774     -2.4618137492     1.7741257527
C     -2.4957412568     -0.5268380056     1.541154559
C     -1.4519118977     1.5121099523     2.4563432314
C     -0.4459941666     2.4913676366     2.0164023784
C     -2.357681196     0.9199844641     1.510826726
C     -0.4913847359     2.9607361828     0.7409808834
C     1.9289117823     2.4543954173     0.4136967592
C     0.7231862103     3.049934571     -0.0648660042
C     3.248194592     0.4472770984     -0.2972251634
C     2.728052264     1.7936809948     -0.5836831464
C     2.2452451378     -1.6940907205     -1.1723143003
C     2.9081189496     -0.4388317692     -1.4222961537
C     1.2007400354     -2.0527511148     -2.0843031913
C     -0.0621288776     -3.1356473955     -0.2917709662
C     -1.3034073939     -2.8805390357     0.4318488083
C     0.0325879786     -2.7898617461     -1.6279667673
C     -3.0380870555     -1.1600535753     0.3672689773
C     -2.3862238551     -2.3471231982     -0.2174713666
C     -3.5418390303     -0.4054113262     -0.6924936352
C     -2.5863216489     1.652758617     0.259632714
C     -1.6221680047     2.6496916938     -0.1184649786
C     -3.2712978178     0.9962340905     -0.8100182146
C     0.296323776     2.9521104906     -1.4341098621
C     -1.1494638565     2.7479104779     -1.4623198385
C     2.3256213632     1.7693999035     -1.9274604769
C     2.4580955314     0.3990248956     -2.4482359609
C     1.0963013399     2.2950883813     -2.3844750802
C     0.7411461564     -1.1583830275     -3.1221710406
C     1.3360465865     0.1060114294     -3.2595257226
C     0.490166213     1.3069116424     -3.298477709
C     -1.1452668662     -2.3338950986     -2.3567871649
C     -2.3673493082     -2.187353836     -1.6715276659
C     -3.1932913461     -1.063338386     -1.9691189671
C     -0.7027421478     -1.3036504755     -3.2790906257
C     -2.8798368878     1.22092087     -2.1726943319
C     -1.7417239205     1.9740661704     -2.4872035472
C     -0.8784676778     1.1714428273     -3.3821267012
C     -2.7732811742     -0.0816216984     -2.8529532568
C     -1.4945515029     -0.1571221339     -3.49772242


