56

 C     1.5110326698     0.0460215533     3.8748988919
C     0.7129789735     -1.1157895625     3.6316730517
C     1.2840316637     -1.7826871238     2.5231916547
C     2.6066736793     0.1068796242     2.9175931091
C     2.4770006189     -1.0224058812     2.0662182572
C     2.6566590705     1.4235781511     2.3754127541
C     0.7354016181     1.1961057858     3.7549246726
C     1.4534444353     2.130014215     2.8980966408
C     -0.6545545036     -0.6598265428     3.5026050384
C     -0.6417288346     0.7982049847     3.4593742973
C     -1.4787571638     -1.3431582783     2.6457107586
C     0.454604798     -2.4715475372     1.5805254597
C     -0.9497353071     -2.4260643452     1.8275762692
C     0.9263852549     -2.6500959941     0.2004465335
C     2.7463850183     -0.907625404     0.6735885543
C     2.075459284     -1.8248556096     -0.2730785628
C     2.9836051304     1.5608517744     1.0301657313
C     3.168489485     0.3863696037     0.2113737403
C     2.3421240979     2.573893609     0.1921334206
C     0.7180772308     2.9054342031     2.0442289332
C     1.2408415499     3.2671081779     0.709273428
C     -1.3779058343     1.475256204     2.4557765248
C     -0.7382205389     2.6514782323     1.8856376276
C     -2.4594789645     -0.6621567933     1.8253821333
C     -2.3439577208     0.7362789841     1.6064076527
C     -1.8878075761     -2.6690884714     0.7746458531
C     -2.8574451841     -1.5767923126     0.7788058842
C     -0.0073603198     -3.1435259326     -0.7381519621
C     -1.4330203185     -3.2025213571     -0.4311940189
C     0.1067214877     -2.8297592971     -2.167621793
C     2.1655122197     -1.5260992558     -1.6458378883
C     1.1662083396     -1.9990706579     -2.5983412835
C     2.9173608696     0.7738730602     -1.151192029
C     2.2941606174     2.083557139     -1.1664288283
C     2.5630644285     -0.1842616161     -2.0836796011
C     1.1496858617     2.2987814867     -2.0187588917
C     0.123395329     3.4836898567     -0.134224567
C     -1.0722310736     3.0689114686     0.6046743858
C     0.0241449382     2.9632514832     -1.4256136059
C     -2.6538470367     1.2076449057     0.238485689
C     -1.9353733226     2.3518202862     -0.2675470093
C     -1.3191991714     2.3505707043     -1.555164663
C     -3.3250718814     -1.0900502706     -0.4407211258
C     -3.1186988584     0.3067018766     -0.7378915549
C     -2.1470254171     -2.8713166846     -1.6350722981
C     -1.1782120128     -2.6414544005     -2.7183025869
C     -3.0659610178     -1.8369723004     -1.6406644961
C     -1.5814340744     1.3182353857     -2.4959714277
C     -2.6426640235     0.3850126601     -2.142206471
C     -1.516338403     -1.4140848826     -3.3887987862
C     -2.6708821107     -0.8957730483     -2.7029289397
C     0.8739126088     -0.9519585356     -3.5020815365
C     1.6944068386     0.1898828533     -3.1477424208
C     0.8687942824     1.3192784906     -3.0263993033
C     -0.4691193739     -0.5253848215     -3.731365031
C     -0.5145323762     0.8656401674     -3.3218462853


