56

 C     1.1209285435     -0.0125097933     4.3030049435
C     2.3755846602     -0.2107652283     3.7452285607
C     2.3057542552     -1.3991035978     2.8480901464
C     0.2904543445     -1.1883008319     3.916526085
C     1.0216810546     -1.9620058626     2.9147216487
C     -0.9632320116     -0.7479421568     3.6073127305
C     0.3569802015     1.1890986149     3.9940113695
C     -0.9584327792     0.7368915233     3.6333916134
C     0.9533793309     2.1890805855     3.1753590395
C     3.024399431     0.82721471     3.0254646939
C     2.3401708663     2.0291104177     2.7938695562
C     2.9039966223     -1.0333038041     1.5917280915
C     3.4284703373     0.2855291368     1.7150035631
C     2.3051314556     -1.4730875447     0.3686434038
C     0.3690667166     -2.3870443557     1.7069485593
C     1.1496597992     -2.372406318     0.479326747
C     -1.6491896384     -1.1915646997     2.4322215083
C     -1.0638494807     -2.1518365046     1.5451560398
C     -1.6153911089     1.1456365602     2.4729278032
C     -2.2226493877     -0.036798968     1.8284671835
C     0.246077852     2.6281149818     1.9727455735
C     -1.0206757063     2.1290175563     1.597972102
C     2.4721139909     2.3429104268     1.3746183135
C     3.1122232178     1.2210726505     0.7036230733
C     1.2400935124     2.7709143988     0.8935765714
C     2.3729561289     -0.6202376369     -0.8018426835
C     2.6234430535     0.7918934416     -0.5518304114
C     1.7013337923     -1.0281833598     -2.0436029372
C     0.5020799566     -2.7458931048     -0.7020013765
C     0.9321710095     -2.2506143913     -2.0256202781
C     -1.6835330675     -2.2915283892     0.2535695838
C     -0.9068389442     -2.9423213994     -0.7587763516
C     -2.633749027     -0.0278243551     0.4923141312
C     -2.6483434654     -1.2992488751     -0.2146943208
C     -1.4359341837     2.1356912519     0.1883692198
C     -2.4627144552     1.2182269549     -0.2654731898
C     0.8919298933     2.5554845004     -0.4607374747
C     1.7421720318     1.7046716614     -1.2638233337
C     -0.5140855309     2.6195888053     -0.8291773962
C     1.338850135     -0.0647966478     -3.0104066889
C     1.3000018178     1.3372042185     -2.556590839
C     0.2408236596     -0.257685521     -3.9572102082
C     -0.1025366762     -2.452806196     -2.9387696373
C     -1.2792245291     -2.8788012902     -2.1391647341
C     -0.5225363134     -1.4568534683     -3.8856210388
C     -3.0293190536     -1.284964169     -1.6003102453
C     -2.3652452226     -2.1672757362     -2.5581494004
C     -1.9697740145     -1.3603350348     -3.7472609951
C     -2.8096850407     1.1858337672     -1.6534740943
C     -3.2066145565     -0.0578665862     -2.2582914851
C     -2.5819517306     -0.1229948763     -3.6101180482
C     -0.8243720035     2.4790887743     -2.2014914388
C     0.1791818542     1.94505318     -3.1104356785
C     -0.4646016231     1.0042638457     -4.0218144891
C     -2.0599169444     1.9278424652     -2.611001937
C     -1.846713009     1.077466264     -3.7965011535


