56

 C     1.5860038314     0.0553423515     3.7905179587
C     0.7469539218     -1.1139042101     3.7146769081
C     1.3028591884     -1.9647770934     2.7480940877
C     2.5676995678     -0.000458781     2.7183234471
C     2.4366695155     -1.2350555808     2.0912693086
C     2.4892992818     1.2321419205     1.9478063295
C     0.8231479241     1.1986636439     3.6123645987
C     1.4959606266     2.0507135781     2.6405569629
C     -0.6082641077     -0.6349742292     3.4894305377
C     -0.5760264825     0.8236776884     3.4068792778
C     -1.4172117731     -1.3156714048     2.5983412736
C     0.4648614702     -2.7963387933     1.9451510003
C     -0.9320506649     -2.5163218582     1.9471479756
C     1.0352869685     -3.2922280173     0.7190934746
C     2.6075001749     -1.334313682     0.6732334068
C     2.1215325632     -2.5146829029     0.0673953747
C     2.5224561475     1.2230339325     0.5333625054
C     2.7081996899     -0.0862387743     -0.1241785074
C     1.8566737914     2.3348443047     -0.1969673597
C     0.7243605907     2.9013969926     1.9236470611
C     1.0820107309     3.2495800689     0.5675325176
C     -1.3361503057     1.5187591402     2.4422465146
C     -0.7607040072     2.7676466223     1.9731256763
C     -2.2450955633     -0.612153439     1.6276910735
C     -2.2182454598     0.7892074839     1.493586583
C     -1.7147697114     -2.7176035105     0.7428069454
C     -2.4545161069     -1.4947579164     0.4942792773
C     0.2176454572     -3.8300138375     -0.2731271805
C     -1.1965962744     -3.474792161     -0.3073631026
C     1.8966906408     -2.5933214554     -1.3458371001
C     0.7732803907     -3.4761928594     -1.57317543
C     2.4172697042     -0.1801638347     -1.4985497115
C     2.0099688918     -1.4243304878     -2.1090813258
C     1.4964207143     2.1752481504     -1.6267515113
C     1.7849398718     0.9232655499     -2.2278244434
C     0.3714277384     2.9180847967     -2.1866044742
C     -0.110645583     3.8289643177     0.008455959
C     -1.2431175872     3.3492671073     0.8345490162
C     -0.4499494738     3.7067996356     -1.2990970589
C     -2.5757631211     1.3639363578     0.1770383286
C     -2.2157011804     2.7289213741     -0.0588038944
C     -1.8451393937     3.1673386642     -1.360720134
C     -2.6363376911     -0.9845022207     -0.8151577427
C     -2.7200565622     0.4685975339     -0.9924063269
C     -1.5028558118     -3.0476136999     -1.6380647191
C     -0.2566681706     -3.0791087205     -2.4152054158
C     -2.1514118152     -1.8253509727     -1.8972422035
C     1.001861751     -1.1079360074     -3.1194302784
C     0.9135542392     0.3287863142     -3.2129996807
C     -0.1691279912     -1.8800003456     -3.1897522364
C     -1.4529535478     -1.1899984559     -3.0189976606
C     -0.5374677134     2.2458568548     -3.0519461074
C     -1.884141609     2.2991891761     -2.428040665
C     -2.3724867763     0.9779505426     -2.2903989937
C     -0.3294315495     0.9380202887     -3.4885110513
C     -1.5416493499     0.1575708404     -3.182369085


