56

 C     1.2289327767     -0.1127267798     3.9686014944
C     2.4251850124     -0.3996061089     3.3590341898
C     2.2877658556     -1.7029337637     2.6316475556
C     0.3538805537     -1.3077034425     3.7917235952
C     0.9926728132     -2.2207920244     2.8499985628
C     -0.9080413518     -0.855052742     3.5387552032
C     0.469842009     1.0656438935     3.5619108787
C     -0.8677583116     0.622983878     3.4096535917
C     0.9862099459     1.977259392     2.5689434124
C     3.0212490451     0.538112036     2.4829849564
C     2.3374111245     1.7250468371     2.1106144887
C     2.7903430008     -1.5046143434     1.3202591418
C     3.3256445228     -0.1776863347     1.2530889226
C     2.1014917001     -2.0273675141     0.1839309243
C     0.2522015313     -2.7468859776     1.7453896834
C     0.9462327055     -2.8845085973     0.450811716
C     -1.6950672984     -1.3764211843     2.4721847149
C     -1.1800483039     -2.4404526911     1.6744594823
C     -1.6823738556     0.9671307743     2.3251664082
C     -2.3029273868     -0.2485113743     1.8072627991
C     0.031872095     2.5640142606     1.6076286604
C     -1.310120122     2.0233158285     1.4323848676
C     0.5850327449     3.2109966862     0.4487290226
C     2.6366215133     1.9132700506     0.6900048147
C     3.09769385     0.650953829     0.1358172151
C     1.8655264854     2.7102812886     -0.0823879697
C     2.1645283077     -1.2726350412     -1.0760106326
C     2.53395897     0.139247586     -1.0687993249
C     1.3514438801     -1.725563257     -2.1500987982
C     0.1894879648     -3.3064884718     -0.6704091405
C     0.5270859925     -2.8453924668     -1.9822358985
C     -1.8649567247     -2.633946765     0.4377761561
C     -1.2485564062     -3.3249472681     -0.6116173401
C     -2.7736035929     -0.3138217899     0.4749281261
C     -2.7393473377     -1.6007172817     -0.1309442134
C     -2.0317871474     2.104831997     0.1532767428
C     -2.7653522625     0.9071844056     -0.3429355169
C     -0.2055220663     3.524191881     -0.63946578
C     -1.5482175438     3.0422862997     -0.8070435877
C     1.6905574388     2.4223084961     -1.4927458132
C     1.8786363167     1.1003386185     -1.9858585706
C     0.5361505576     3.1879535378     -1.8820098961
C     0.7086150365     -0.781476168     -3.0961740191
C     0.9391856328     0.6159454233     -3.0259964289
C     -0.7118087162     -2.570457956     -2.7189889903
C     -1.7781178323     -2.8151924738     -1.8694796108
C     -2.7089029639     -1.7430104032     -1.5635439841
C     -0.5919804333     -1.3259005244     -3.4103881141
C     -2.9127548105     0.7154799038     -1.7491714719
C     -2.7267959546     -0.6048484061     -2.353651394
C     -1.7110192737     -0.450238343     -3.419011388
C     -1.6967157908     2.7859741451     -2.2165002844
C     -0.340513109     2.7570592256     -2.8274950706
C     -0.1542443085     1.4714054321     -3.4694198799
C     -2.3397695184     1.6632203341     -2.6591008853
C     -1.4591569699     0.9134634538     -3.5854833333


