56

 C     1.2914683472     -0.0954166252     4.6312042101
C     0.5929690959     -1.260160932     4.2500319983
C     1.5069091681     -2.2034818898     3.6615293416
C     2.5990065398     -0.1717963218     3.9330873835
C     2.748001343     -1.4417768345     3.3410321278
C     2.726439982     0.9659249269     3.1047952369
C     0.5929095078     1.0107973561     4.0480356135
C     1.4769069182     1.7570440278     3.2545704963
C     -0.6097012697     -0.8964122133     3.4843874258
C     -0.6198129784     0.539751778     3.3724601085
C     -1.0270731043     -1.6684014967     2.3581956591
C     1.1238819095     -2.8930506366     2.5337324798
C     -0.1614045573     -2.7347759655     1.9097584612
C     2.9868810121     -1.5812716387     1.9298272049
C     2.1150127749     -2.6351772075     1.4762063911
C     2.9645686797     0.8600117676     1.7114591478
C     3.0779509113     -0.4283340947     1.0573155831
C     1.0894581493     2.267267124     2.0017117987
C     2.1032862985     1.8440453724     1.0660731111
C     -1.0974481741     1.1761904173     2.1913026084
C     -0.2607068364     2.1677101874     1.5297005628
C     -1.8363930626     -1.0165880016     1.3529436017
C     -1.9575205757     0.417527155     1.3096159263
C     -2.0269324251     -1.6870221498     0.0841328033
C     0.0466883632     -2.8505307517     0.4900787664
C     1.4907157204     -2.6449320885     0.2382791236
C     -0.8939814434     -2.4394503101     -0.4310053476
C     2.5759576756     -0.5307258854     -0.3152553225
C     1.810669051     -1.682548766     -0.755286206
C     1.8455660839     1.8338171743     -0.2950618652
C     2.2683358187     0.6772876396     -1.0559863132
C     -0.494058331     2.4864817838     0.1462624538
C     0.6535136783     2.5389064865     -0.7442364139
C     -2.5050719502     1.072275144     0.1250528811
C     -1.7898369683     2.2096191211     -0.4419950126
C     -2.89891637     -1.1205129593     -0.838191523
C     -3.275005808     0.2655649861     -0.7598980276
C     -2.7657106776     -1.4561234951     -2.2486721704
C     -0.4497612881     -2.1575205972     -1.8091219508
C     0.91780749     -1.6270561746     -1.9241265361
C     -1.4152713941     -1.779883026     -2.7413097774
C     1.7968302616     0.5730093651     -2.3901644162
C     1.1340879435     -0.6313230705     -2.8789068867
C     0.4543228809     2.6220206016     -2.1359529348
C     1.1239748783     1.6569095135     -2.9807434102
C     -1.9894721552     2.5239517843     -1.8402551918
C     -0.8518085165     2.76469247     -2.6552940986
C     -3.5687432782     0.6760278556     -2.1214408636
C     -3.3311552022     -0.4637740805     -3.0289443236
C     -2.9343187662     1.7817460284     -2.6471577263
C     -1.1435747218     -0.8533362785     -3.8418282178
C     0.1258355446     -0.2338855996     -3.8687719294
C     0.2091990696     1.1983077346     -4.0175392324
C     -0.9699545683     1.9655149918     -3.9009904048
C     -2.340590661     -0.0365889947     -4.0058954738
C     -2.2349300131     1.3694552929     -3.9187509304


