56

 C     1.3700923801     -0.0560983184     3.8642145552
C     0.6080055093     -1.2019833413     3.8216308745
C     1.2520475631     -2.1324210386     2.883026009
C     2.4289044296     -0.1268746798     2.8759737664
C     2.3085713632     -1.3617632486     2.1762974264
C     2.4211863247     1.0755125245     2.1455538285
C     0.5567670323     1.1033361458     3.5364295983
C     1.2403929749     1.8663243722     2.5849050761
C     -0.7808831789     -0.7983203738     3.5634625298
C     -0.7728121274     0.6645458139     3.2543582039
C     -1.5587593848     -1.6588301831     2.8387646693
C     0.4360498358     -2.9773618334     2.1797084806
C     -1.0055923562     -2.9174288395     2.3714837077
C     0.7045934653     -3.2315583455     0.7507161936
C     2.4322088432     -1.4064710519     0.7482843931
C     1.6948827358     -2.472073225     0.0429660811
C     2.7734648879     1.0711079771     0.7775616766
C     2.7648799533     -0.1770441625     0.0322944872
C     2.4692988143     2.296204531     0.1090590199
C     0.5198943561     2.6009864241     1.6149214783
C     1.3453282506     3.0961249914     0.5592023744
C     -1.478898761     1.1887288502     2.1393097448
C     -0.8755883367     2.2971721457     1.3669339688
C     -2.4319344003     -1.1230607425     1.7809986443
C     -2.4282131308     0.2773642625     1.4606322584
C     -1.5681183794     -3.1388383321     1.1093666927
C     -0.5629611123     -3.5129305896     0.1372195975
C     -2.5185219697     -2.1072524517     0.7511989181
C     -0.7974445537     -3.217417157     -1.2063366564
C     1.4845746605     -2.3360647451     -1.3615508204
C     0.3155213857     -2.8422491804     -1.9784373616
C     2.4901103715     -0.0515705491     -1.4182948422
C     1.8262569329     -1.1052596601     -2.0640060769
C     2.5887072972     2.4515950864     -1.3111802387
C     2.3670347224     1.2496910744     -2.042847114
C     0.7809531962     3.6475429689     -0.6102731392
C     1.6418110172     3.4363500854     -1.7428791391
C     -1.4088311729     2.6640041574     0.0487069259
C     -0.5995233373     3.3561916658     -0.9119290478
C     -2.8883427493     0.6034339033     0.1709301983
C     -2.4632842243     1.8487640787     -0.4985912818
C     -2.732800786     -1.7519007441     -0.6215914989
C     -1.9531966867     -2.3965250174     -1.6395430809
C     -3.1422071707     -0.3961480506     -0.8366290162
C     -0.1230550997     -1.899920841     -2.9929671563
C     0.8005445434     -0.8589671147     -3.0903831396
C     -1.5127037743     -1.6376771809     -2.7826980423
C     1.2917785245     1.5159558364     -3.021478015
C     0.8065447875     2.8160501046     -2.7039272873
C     -0.5974385416     2.9513646033     -2.3276344294
C     0.3815320822     0.4905739252     -3.3994977187
C     -2.555949063     1.6301519348     -1.8744426597
C     -2.8812244673     0.2375471618     -2.0852263404
C     -1.9536493695     -0.2976716311     -2.9986929934
C     -1.4867908838     1.9941979507     -2.768531207
C     -1.0232132331     0.7608600834     -3.4065430255


