56

 C     1.3716688436     -0.156439029     4.198030626
C     0.602549456     -1.3554636159     4.1366409858
C     1.4487448709     -2.3736540792     3.6139791948
C     2.5510547147     -0.3561235219     3.3143060512
C     2.6519375738     -1.6933282614     2.9900468169
C     2.5034930348     0.6130803176     2.2546912538
C     0.6254366576     0.8777499825     3.6362683184
C     1.3796886221     1.4751785988     2.5758687397
C     -0.6559729653     -1.0661915941     3.4409812694
C     -0.6813570394     0.3602474892     3.2159822869
C     -1.1528435894     -1.9167288405     2.3992545344
C     0.9600334168     -3.2646613843     2.701169323
C     -0.3755129653     -3.1406328585     2.1401825118
C     2.7458980895     -2.1306768336     1.6255348818
C     1.9098297668     -3.2979932426     1.545180139
C     2.6383536915     0.2419272174     0.8766310566
C     2.7005157958     -1.1722790897     0.5235746621
C     2.177567396     1.2148860031     -0.1122006136
C     0.7222078564     2.1982177202     1.5905494225
C     1.4184549696     2.3752721956     0.3371947545
C     -1.3400480476     0.9481275834     2.1288398669
C     -0.7257115328     2.1450729526     1.543297628
C     -1.9114127299     -1.3064308332     1.292050457
C     -2.1172200319     0.13298325     1.2154839342
C     -1.9471840342     -2.0024612281     -0.0036644897
C     -0.2345995063     -3.5528525535     0.7973814332
C     1.1963774812     -3.5820975693     0.4192307741
C     -0.9508875941     -2.9979819546     -0.2561722037
C     2.053492976     -1.5630562356     -0.7421071991
C     1.3060843603     -2.7805187665     -0.754392408
C     -0.012396148     -2.7326706122     -1.3440786547
C     1.9875517371     0.8340818955     -1.4948391811
C     1.6954931817     -0.564389023     -1.7584579571
C     1.5120375171     1.84013769     -2.4260426755
C     0.8147702721     3.2542482686     -0.5808537059
C     1.0285036774     3.10137436     -1.9592278441
C     -1.3546092968     2.7944956519     0.4777757405
C     -0.5970953097     3.5758902882     -0.4076885519
C     -2.6957084837     0.7843460823     0.0015236916
C     -2.4296509143     2.1485952168     -0.2862082596
C     -2.4236485955     -1.3696186679     -1.1581526472
C     -3.0179415843     -0.032272057     -1.1404995339
C     -0.3350701238     -1.8571720253     -2.3605770518
C     0.6565645311     -0.8584493736     -2.7514250387
C     -1.7314428307     -1.492793702     -2.4091810936
C     0.7217193408     1.4615632008     -3.5545360993
C     0.2047689509     0.1662771047     -3.6438938909
C     -0.231854739     3.4082780976     -2.6693227735
C     -1.2406108259     3.581134687     -1.7000456183
C     -2.3924267961     2.6975057622     -1.6471057942
C     -0.4019093377     2.4382560396     -3.6783020537
C     -3.0116911867     0.4890549966     -2.4447003258
C     -2.158847075     -0.4280549382     -3.2357296306
C     -1.2404060459     0.3190143936     -3.932833195
C     -2.6199376729     1.8314540067     -2.7445600453
C     -1.5968018291     1.7365408679     -3.7948518185


