56

 C     1.1626255038     -0.0033691658     4.0160533739
C     2.2808002268     -0.2735575945     3.2560279307
C     2.1901405031     -1.6368210595     2.7108483697
C     0.2789195549     -1.19975009     3.857612848
C     0.8975527255     -2.1588895149     2.9686914302
C     -0.9759876444     -0.7466581582     3.576612337
C     0.3747187137     1.1795996478     3.7579143009
C     -0.9948640421     0.7328644724     3.6301551013
C     0.844626666     2.1188850507     2.8150805874
C     2.6980650363     0.588456317     2.1691549643
C     2.0204149556     1.7957560456     1.9960728935
C     2.7399981466     -1.6247505593     1.4056415876
C     2.9920968012     -0.2249322047     1.0062402911
C     2.228688224     -2.5204977443     0.4971795027
C     0.1477788454     -2.7354239213     1.8751211611
C     0.9550375868     -3.1769641666     0.7813246443
C     -1.7031586868     -1.172865823     2.3965505311
C     -1.1821531465     -2.2029444591     1.5353662675
C     -1.8053882049     1.1762088968     2.6040862128
C     -2.3286070763     -0.0175388628     1.8666524267
C     -0.0859265482     2.7823256162     1.9405220849
C     -1.4465826325     2.3425508514     1.8438393687
C     1.8067727776     2.288784193     0.6608473167
C     0.6050784799     3.0963680333     0.6939510925
C     2.7138881178     0.1979296126     -0.3154688383
C     2.1421249378     1.5405198575     -0.5056428205
C     2.2875814484     -2.2186567219     -0.9220658248
C     2.4858398171     -0.8512674303     -1.3421645335
C     0.3743883367     -3.4234294044     -0.4686693019
C     1.280679926     -2.9981779809     -1.5372849233
C     -1.6621030567     -2.2087044196     0.151994506
C     -0.9199014144     -2.9697545383     -0.8107140454
C     -2.7340169564     0.0733179667     0.514815328
C     -2.4850312858     -1.0920894441     -0.3595193812
C     -2.1226272393     2.5107462466     0.6048494017
C     -2.8517920598     1.3830057905     -0.0349559037
C     -0.1022645728     3.3495803733     -0.4600036785
C     -1.5411678379     3.2581309658     -0.4304671094
C     1.4281455413     1.8689001563     -1.7500837174
C     0.3559366272     2.8044749176     -1.7285273916
C     1.8880881765     -0.487810184     -2.5740352262
C     1.4110497004     0.8856444646     -2.818222027
C     0.5371469582     -2.5391870852     -2.6299992601
C     -0.8832259679     -2.5970234578     -2.2259566956
C     1.0020279924     -1.3847224868     -3.2910673385
C     -2.5704218839     -0.8802127271     -1.7593204523
C     -1.758165586     -1.6470684623     -2.7020229264
C     -2.8105712564     1.5857215837     -1.4435767127
C     -1.9624072305     2.7205406162     -1.691617961
C     -0.840096625     2.5741083901     -2.5489417556
C     -2.7042752698     0.4690482884     -2.3103093913
C     0.3670550127     0.8423273342     -3.7604621457
C     0.0467614472     -0.5718708514     -3.9779765365
C     -1.3114371368     -0.7311101577     -3.7351636383
C     -0.8549571311     1.5549493674     -3.5186600794
C     -1.9068982845     0.5753036299     -3.4803062643


