56

 C     1.082728234     -0.0892035143     4.0199748798
C     2.2392580842     -0.3051460558     3.281672021
C     2.1977590192     -1.643939037     2.7025507072
C     0.2557909876     -1.3223131491     3.8254794185
C     0.9297311056     -2.2346834497     2.9305486015
C     -1.0135291761     -0.9223912546     3.5256660056
C     0.2578518371     1.0552925843     3.7599803111
C     -1.0945216098     0.5554375431     3.5922782574
C     0.7146421048     2.0343825925     2.8420353808
C     2.632928382     0.590989114     2.2170293615
C     1.9255305647     1.7799741018     2.0662854751
C     2.7861261225     -1.5977149763     1.4031233021
C     2.9978259375     -0.2038703056     1.0345330931
C     2.3345649686     -2.4929247702     0.4683855011
C     0.232337442     -2.8190466434     1.8057958035
C     1.0784280827     -3.216044616     0.723031388
C     -1.6838595366     -1.3617417428     2.3226934003
C     -1.1181893604     -2.3408306029     1.4516901275
C     -1.8899823705     0.9770337344     2.5503405013
C     -2.3612588091     -0.226614229     1.7915541755
C     -0.2071643782     2.6660713102     1.9408440711
C     -1.5460764704     2.1688668584     1.8036080669
C     1.7324060874     2.2995058534     0.7349421943
C     0.4852914144     3.0017953424     0.7045794456
C     2.7361700041     0.2271009586     -0.2835136045
C     2.195660213     1.5938607418     -0.4317534505
C     2.3774234562     -2.1537063401     -0.94154229
C     2.4798401124     -0.7857563684     -1.3405442122
C     0.531014946     -3.4908708703     -0.526624526
C     1.4353479056     -3.0250983507     -1.5792842152
C     -1.573857215     -2.3322183684     0.0508959994
C     -0.8111817416     -3.1027878153     -0.8874080048
C     -2.7330117561     -0.133518221     0.448228312
C     -2.3749337745     -1.2164683331     -0.4793670793
C     -2.188884715     2.3269140289     0.5714445992
C     -2.9518668365     1.2078509008     -0.0420153923
C     -0.1955823953     3.2585083608     -0.5141125153
C     -1.6356431279     3.1034164467     -0.510717438
C     1.6082431743     1.9723108492     -1.6495003067
C     0.5171869445     2.9148139416     -1.7203245932
C     1.7681657784     -0.3796423652     -2.5674967751
C     1.4700948426     1.0050840757     -2.7603137439
C     0.667640011     -2.5928649627     -2.6323586242
C     -0.7513233643     -2.7191354125     -2.2537700334
C     0.8453149992     -1.3060747756     -3.2008944548
C     -2.346106089     -0.8929259878     -1.9063481929
C     -1.424296711     -1.6013659208     -2.751769983
C     -0.4763658155     -0.8459767886     -3.5982825587
C     -3.0556040179     1.4656506761     -1.3923782452
C     -2.3093039825     2.6848183968     -1.6930698277
C     -2.6818968607     0.4505380653     -2.3627914226
C     -0.2130267535     2.582170118     -2.906292015
C     0.373362601     1.4188098507     -3.5413429185
C     -0.7010284086     0.4926373529     -3.8265403809
C     -1.6142482895     2.4359282865     -2.8835574188
C     -1.9359218075     1.0851131321     -3.3852761978


