56

 C     1.2537935812     -0.143854246     3.9606873429
C     2.368976564     -0.3651725811     3.1826989565
C     2.2650869985     -1.690566451     2.5427958537
C     0.3851236353     -1.3400728335     3.8013301682
C     0.9917345367     -2.2432555619     2.8291156285
C     -0.8946791038     -0.8915527567     3.6016866754
C     0.4383174383     1.0386084479     3.7294611101
C     -0.9156291165     0.5863252137     3.5888888419
C     0.8879198789     2.0047477001     2.8261168946
C     2.8114736452     0.5782602788     2.1812207743
C     2.1376007284     1.7950194957     2.0845419337
C     2.7225041646     -1.5555348792     1.2156019809
C     3.0862073565     -0.1674276007     0.9504643538
C     2.0804038196     -2.3022873688     0.2212471619
C     0.191809015     -2.7985002474     1.7602176628
C     0.8491201862     -2.9953736964     0.5106638217
C     -1.7235791824     -1.3830121911     2.5421775397
C     -1.2541478255     -2.4459866015     1.6974120324
C     -1.7225379353     0.9710909985     2.5136686844
C     -2.3500134743     -0.2412097356     1.9470943978
C     -0.0389613387     2.5891226316     1.8725846659
C     -1.331483625     2.0267937076     1.6226891041
C     2.0201527953     2.4185911392     0.79125124
C     0.7328077122     3.0569629155     0.7510902313
C     2.9045785195     0.3914064131     -0.3331333902
C     2.5354471734     1.815605966     -0.4064205166
C     2.0234154854     -1.8114273422     -1.1185102956
C     2.4637109075     -0.5073912715     -1.427081215
C     0.1289915009     -3.0990829011     -0.74425883
C     0.8367710735     -2.4003441749     -1.7616980168
C     -1.9432241325     -2.5731024972     0.4816114097
C     -1.2869003863     -3.077346087     -0.7462829331
C     -2.8729654838     -0.2728322326     0.6429535757
C     -2.9008944915     -1.5822240529     0.0482096137
C     -1.9014256352     2.0479230196     0.2582327499
C     -2.7492889869     0.9306293764     -0.2128680755
C     0.1164085345     3.3170501456     -0.4679178374
C     -1.2506441417     2.8431804581     -0.7161685144
C     2.0271918896     2.3291226811     -1.6343631459
C     0.8900253339     3.1834918545     -1.6384711608
C     1.9103403811     0.0721608542     -2.6275902203
C     1.8596867112     1.4504913898     -2.7826724467
C     0.1581603647     -1.7580840717     -2.8520899457
C     0.7285078337     -0.5325336337     -3.3127470424
C     -1.963491587     -2.5967334249     -1.863749606
C     -3.0241876644     -1.7073021619     -1.3661474266
C     -1.2786152688     -1.9146195089     -2.9363547372
C     -2.8948123524     0.7405367885     -1.6171207987
C     -3.0469147259     -0.5883984132     -2.1583532038
C     -2.0660186906     -0.7582697596     -3.2481487164
C     -1.3300365099     2.5430808666     -2.1336195903
C     -0.0105920543     2.742614147     -2.7075668822
C     0.6040899178     1.7701789914     -3.4703459494
C     -0.0894596168     0.5492598226     -3.7780699219
C     -2.0807814427     1.4686648349     -2.5703981826
C     -1.4890728806     0.482578176     -3.5235658042


