56

 C     1.5174941899     0.0120257177     4.2020869177
C     0.671639343     -1.1647745543     3.9275492758
C     1.3958848607     -2.0455087715     3.1242812977
C     2.6435371613     -0.0443716373     3.2741564411
C     2.5920014242     -1.2805241803     2.655581061
C     2.5791632812     1.0999977405     2.379091501
C     0.7747808264     1.1186734116     3.8343537292
C     1.4751777759     1.9058531192     2.8227715929
C     -0.6301138238     -0.7558560286     3.4748262756
C     -0.6032238358     0.7184089286     3.519260084
C     -1.2684007269     -1.4041853582     2.3770567249
C     0.8193887774     -2.6627128952     2.0036773702
C     -0.5573524594     -2.4701500865     1.6600173845
C     2.7203320924     -1.4797417728     1.239679795
C     1.786579764     -2.5287589575     0.908517948
C     2.8307151816     0.9606704277     0.9495879405
C     2.8892884654     -0.3910491687     0.3393828537
C     2.3593821769     2.0098772574     0.1457478614
C     0.7419912671     2.7121842266     1.9139616795
C     1.3758789094     2.9711012853     0.6608033648
C     -1.3038286681     1.4663478171     2.6119757828
C     -0.694429764     2.5950911606     1.8969422995
C     -2.2425103991     -0.602103151     1.6013161041
C     -2.2335018432     0.8226135676     1.7113366541
C     -2.7545644718     -1.1014472233     0.3948524918
C     -0.9596523554     -2.8314137787     0.2965001477
C     -2.2116816063     -2.3391636542     -0.2059636769
C     1.3949683919     -2.706866792     -0.3845090522
C     0.0353957285     -3.0911552137     -0.6973804761
C     2.4826699664     -0.5888087519     -1.063040606
C     1.8743186079     -1.8291713851     -1.41523063
C     2.1393622512     1.8599090144     -1.2924440222
C     2.1598921118     0.5624723156     -1.9131377921
C     0.6089309411     3.3818501186     -0.4373960536
C     1.1560476435     2.8022759368     -1.6588027545
C     -1.4250550851     2.7479193359     0.6837267939
C     -2.3950960656     1.6593000786     0.5624947849
C     -0.7966282385     3.2140736663     -0.4852165839
C     -3.1836279071     -0.2389596337     -0.6708310801
C     -2.7957389157     1.1381287974     -0.6953369244
C     -2.4802914867     -2.3134814904     -1.5729022912
C     -3.123978594     -1.0178991939     -1.8757346936
C     -0.1683327644     -2.8104024383     -2.0982738018
C     0.9679047794     -1.9871970242     -2.5357015519
C     -1.4636453599     -2.5227445953     -2.5667938817
C     1.3173053935     0.3802486825     -3.0534655078
C     0.7736287252     -0.9206753067     -3.4091148497
C     0.1001797214     2.4780405201     -2.5268338482
C     -1.1532662941     2.6482600309     -1.7930915352
C     -2.1897790714     1.6907642854     -1.9420755067
C     0.2761992438     1.3669009525     -3.3691131991
C     -2.6562699593     -0.5139489345     -3.0616154606
C     -1.6289528256     -1.4818910904     -3.5580936287
C     -0.5525334282     -0.7256339591     -3.9602609477
C     -2.1099230853     0.824162313     -3.114096117
C     -0.8776599576     0.7034463497     -3.8150797245


