56

 C     1.4907733739     -0.2223605548     3.9960770931
C     0.6885523745     -1.3268163664     3.8826699923
C     1.325548528     -2.2190024946     2.8815721428
C     2.6013038866     -0.3111451218     3.0855182465
C     2.4568467743     -1.5097036265     2.3029972969
C     2.7246214539     0.938284355     2.4337092076
C     0.7243685172     0.9891700369     3.601601614
C     1.4810746409     1.7316033883     2.6813075487
C     -0.6765320112     -0.8483639764     3.5848762584
C     -0.5996253022     0.6143392496     3.3092248235
C     -1.5010448051     -1.6547231772     2.8518577289
C     0.4910554837     -2.9385088343     2.0611773425
C     -0.9548497732     -2.8842257857     2.2698345225
C     0.7370432235     -3.0185664951     0.6116562236
C     2.6364394106     -1.453562349     0.8634723987
C     1.7227079477     -2.2235511568     -0.0203773546
C     3.2407590777     0.9427661014     1.1509086087
C     3.2040627349     -0.2624099556     0.3397550324
C     2.8962184407     2.0329269153     0.3084449804
C     0.8247240434     2.3952554768     1.59046523
C     1.6643984991     2.7169558684     0.4655143394
C     -1.2800229519     1.1784347075     2.1864896591
C     -0.5956501684     2.1686678613     1.3560316245
C     -2.4001483478     -1.0582868104     1.8741284469
C     -2.3458775971     0.3581141836     1.5936566833
C     -1.5659959395     -3.0223744095     1.0318214215
C     -0.5570101968     -3.2175171367     -0.0004762282
C     -2.5551717541     -1.9868762453     0.8033389332
C     -0.8179758402     -2.7526819331     -1.2598383758
C     1.4623747267     -1.7741448026     -1.4120188252
C     0.234967881     -2.1461117124     -2.030714993
C     2.9685115636     0.1757573014     -1.0362836611
C     2.9536231942     1.5894485626     -1.0553649657
C     2.1112445598     -0.5656741735     -1.9323978345
C     1.100702553     2.9446442796     -0.8577179085
C     1.9762579543     2.2910147238     -1.8090019483
C     -1.1697341473     2.5336903724     0.0442220949
C     -0.3003967189     2.9790659281     -1.0764298866
C     -2.8845428335     0.7645711278     0.3726689397
C     -2.4132160087     1.9517171538     -0.3041101512
C     -2.8688028932     -1.5625520013     -0.5198343813
C     -2.0891347727     -2.0836552722     -1.6072199046
C     -3.3218294178     -0.2081503187     -0.6473509163
C     -0.4055468837     -1.3659790683     -3.06414195
C     -1.8640141167     -1.3211959249     -2.7859940383
C     1.4857436054     0.1741495943     -2.9771815432
C     1.4313489454     1.6481257029     -2.9149876977
C     0.2417325793     -0.2576468431     -3.5900584066
C     -0.7219539652     2.7489750547     -2.4505002977
C     0.1633236468     2.0708266594     -3.3382711777
C     -0.5497748182     0.9192625984     -3.9104444995
C     -2.81346337     1.8131874559     -1.6851142082
C     -3.2862749426     0.4241215279     -1.8878693802
C     -2.5803290867     -0.110445473     -3.0058805319
C     -2.0313547852     2.2020000748     -2.7341217227
C     -1.8900561623     1.0091557475     -3.6212956255


