56

 C     1.5335242501     -0.1080981833     4.3649148038
C     0.7263066281     -1.3159543407     4.1896707188
C     1.5046875554     -2.2567801854     3.4849858032
C     2.6456094422     -0.2139739786     3.4125728196
C     2.6860923503     -1.5005077402     2.9149692862
C     2.557517037     0.8826853574     2.4576993823
C     0.7676100783     0.9631209076     3.9410345593
C     1.4246928922     1.6790228419     2.8527234881
C     -0.5821812931     -0.9631893429     3.685563605
C     -0.5961124398     0.4968428271     3.6567002902
C     -1.1714708571     -1.6690959459     2.5677031466
C     0.9408029115     -2.9457431304     2.4272171895
C     -0.3980944057     -2.7305093452     1.9732257078
C     2.7530910803     -1.7661877741     1.4959955366
C     1.8133473155     -2.7975079799     1.2448947116
C     2.801878255     0.6683282777     1.0593860337
C     2.8570562573     -0.6990468035     0.5314693307
C     2.2906958836     1.6742359553     0.1909230759
C     0.6511732335     2.4021967558     1.8959344467
C     1.2224549038     2.5776817315     0.6168638299
C     -1.3368759248     1.1746110907     2.7213566766
C     -0.7821096593     2.2937973941     1.9319769256
C     -2.0789641075     -0.9457553823     1.670025021
C     -2.2356134699     0.4593109609     1.859410907
C     -2.3240252635     -1.4134122098     0.3054694324
C     -0.3644209932     -2.835812341     0.5259052482
C     1.0309270449     -2.8135778126     0.0962870505
C     -1.3412231992     -2.3008539068     -0.3162770111
C     2.3337963179     -0.9324499238     -0.8070400414
C     1.3829094094     -2.0141912208     -1.0180015285
C     2.2027442241     1.4976305959     -1.2099292033
C     2.249546426     0.1684156637     -1.7540289581
C     0.4414429625     2.8808515517     -0.5366819824
C     1.18031301     2.4107969413     -1.6977911647
C     -1.5394422102     2.4130747438     0.7426079887
C     -2.5481393598     1.3475189245     0.7689945052
C     -0.9801147219     2.7785953207     -0.5335898857
C     -3.0566866741     -0.5787122153     -0.5811997919
C     -3.0697205617     0.8666619502     -0.3896491213
C     -2.9684280761     -0.7674493624     -1.9700395595
C     -0.9995084037     -2.1668847561     -1.7375154
C     0.4058966155     -1.9705574334     -2.0889675548
C     -1.9836901238     -1.5838055697     -2.5984402457
C     1.6132066349     -0.0453034277     -3.0001691051
C     0.7328727763     -1.1668054114     -3.2133769353
C     0.5458013899     2.2080277742     -2.8902935694
C     0.9896267255     1.0745813661     -3.709346116
C     -1.6799350732     2.4037250034     -1.7910129479
C     -2.8188377513     1.5240326848     -1.6785602865
C     -3.0382703231     0.5290574557     -2.6704705486
C     -0.9081417426     2.3120617576     -3.0124528116
C     -1.6122464076     -0.914605205     -3.8158370123
C     -0.2816789862     -0.7487408003     -4.1682532374
C     -0.0593740427     0.6539954834     -4.5066933208
C     -2.2704814482     0.4390342496     -3.8277152529
C     -1.2598360717     1.3856161919     -4.0631488986


