56

 C     1.2802860934     0.1015923591     3.9048987956
C     2.4261979051     -0.0645537344     3.0919883262
C     2.4009506044     -1.4278685056     2.574399133
C     0.4484095722     -1.1162553973     3.7703486981
C     1.1694547876     -2.0396694751     2.9569585458
C     -0.8644701524     -0.7193580148     3.4041683439
C     0.4699682171     1.2096019198     3.7136678557
C     -0.9161804644     0.7164723541     3.4861708254
C     0.7468036784     2.1515626029     2.6912962377
C     2.6527582181     0.7941349572     1.9846068573
C     1.8329923972     1.9447846543     1.7598707655
C     2.8072743308     -1.4325529347     1.219476368
C     3.0166136526     -0.0569568298     0.829698105
C     2.2385145081     -2.3714285575     0.2897652044
C     0.4547368814     -2.7615386381     1.9639760934
C     1.0653624706     -3.0875189265     0.6998535106
C     -1.5754857677     -1.3606543966     2.3176551048
C     -0.9492742751     -2.5111006678     1.7457561107
C     -2.4533234502     -0.5544768878     1.4548638951
C     -1.5292814211     1.4828193934     2.5108286186
C     -0.5563222262     2.523631468     2.1414290573
C     -2.381137952     0.9031772213     1.4880248976
C     -0.6355712312     3.131384436     0.9408865817
C     1.6879839219     2.4485756594     0.3761214328
C     0.5672812455     3.2893723711     0.1174260096
C     2.8251249244     0.3566283488     -0.5011600758
C     2.2531068337     1.6949205744     -0.7603482766
C     2.3507142138     -2.0275377079     -1.0888593552
C     2.6670829695     -0.6868289716     -1.4790532061
C     1.4152516212     -2.5641341876     -2.0553764733
C     -0.0048207378     -3.3378322276     -0.2571672264
C     -1.2513782953     -2.9524915568     0.3990334934
C     0.1641241154     -3.1234401902     -1.6177143088
C     -2.901420499     -1.1588750555     0.2322544141
C     -2.2578764902     -2.3599211587     -0.3200967623
C     -3.2672555511     -0.3648680317     -0.8597184363
C     -2.5960845857     1.689030118     0.2803989545
C     -1.7778057307     2.869716998     0.0536306086
C     -3.0562030006     1.0257013141     -0.9045012616
C     0.0784429084     3.4840277874     -1.1975590885
C     -1.374277057     3.2239648144     -1.2336097679
C     1.7153530846     1.9210906362     -2.0613285322
C     0.6660060922     2.8478761265     -2.272415744
C     1.9426186746     -0.4461956874     -2.7268510373
C     1.1571624465     -1.6081141725     -3.0499799498
C     1.4219489135     0.7962811341     -2.9625076526
C     -0.897249343     -2.4862616351     -2.400116437
C     -2.1181904773     -2.1841395741     -1.7764290733
C     -2.7696206356     -0.9780029196     -2.1052660271
C     -0.2771096264     -1.4938614106     -3.2574938653
C     -2.4849636608     1.3089621382     -2.2229885665
C     -1.6465988192     2.403003021     -2.389352237
C     -0.3924119386     2.1953747959     -3.0740388848
C     0.0429192271     0.9381529568     -3.4843752518
C     -2.1698062633     0.0290432624     -2.8827842028
C     -0.8613248375     -0.2044459399     -3.4583611846


