56

 C     1.4393432423     0.0473009376     3.4648483964
C     2.5978685778     -0.1158038896     2.6716817633
C     2.5280120832     -1.4481480205     2.0640210857
C     0.5688302866     -1.1247552966     3.2420605261
C     1.218497111     -2.0301175625     2.3625708776
C     -0.7442483221     -0.7033126694     3.04904402
C     0.64328482     1.2121382246     3.4412170128
C     -0.7464229961     0.7627627481     3.2731476787
C     1.1083139634     2.3294003324     2.6917927861
C     3.0351993325     0.9849149339     1.8821733462
C     2.3171077807     2.1963194626     1.9713732528
C     3.323015651     0.7761622506     0.4556188408
C     3.063781866     -1.6449929068     0.8005855854
C     3.4070600321     -0.4895733823     -0.0518361719
C     2.4462269514     -2.596472048     -0.0500853432
C     0.4469298804     -2.7120637029     1.3761423977
C     1.1658628176     -3.1217274624     0.185970555
C     -1.5709174452     -1.3192643133     2.0403244833
C     -0.9838537989     -2.4094860985     1.2639509096
C     -2.6502314923     -0.503708579     1.4735514025
C     -1.6454793204     1.5417149259     2.6011419081
C     -2.6777854305     0.9150396082     1.7695113354
C     0.166870132     3.0577236426     1.8359303029
C     -1.1861652403     2.7664391222     1.9166436472
C     2.0905807094     2.7131452105     0.6065584052
C     2.6266800228     1.8276351299     -0.324846048
C     0.7664199127     3.215651346     0.5099406404
C     1.9150574415     1.5248093257     -1.5422953637
C     2.9267105929     -0.766363711     -1.4092745597
C     2.501716452     -2.1042512107     -1.4288958081
C     2.1758208094     0.220356727     -2.1601042077
C     0.4963878895     -3.2188418533     -1.1149366724
C     1.3413100093     -2.540001957     -2.1173039475
C     -1.6352112153     -2.7695661619     0.0284878062
C     -0.8636269543     -3.1126695076     -1.1907505127
C     -3.2173181543     -0.8872103762     0.2226531044
C     -2.7616031167     -2.0756497695     -0.4059842619
C     -3.4670640358     0.0775786869     -0.8494750811
C     -2.9786440204     1.8193957141     0.7387002751
C     -1.9692989007     2.8813270862     0.7402807434
C     -3.2189263338     1.4185554045     -0.5999253788
C     0.0274808591     2.9954155294     -0.6895896189
C     0.6397135635     2.2039411936     -1.7619799225
C     -1.4147879185     2.9730514349     -0.5462073312
C     -2.2579685388     2.1667002334     -1.434369102
C     -0.2472207298     1.6452437207     -2.7526856776
C     -1.7129658357     1.5737447572     -2.5380159585
C     1.2324011625     -0.2983235167     -3.0951646312
C     0.772181981     -1.6871543548     -3.0504763868
C     0.1021920096     0.4872600935     -3.4426346304
C     -1.4920627099     -2.4509498671     -2.343429648
C     -2.6772979976     -1.8541257962     -1.8637094105
C     -3.0253632256     -0.508134911     -2.1187709099
C     -2.18642167     0.2538969941     -2.9799606849
C     -0.6808193807     -1.7054614401     -3.2447036337
C     -1.0791531698     -0.3894943714     -3.5725121954


