56

 C     1.1644443994     -0.1498157901     4.0089748526
C     2.2943017244     -0.285757675     3.2317438682
C     2.1908480023     -1.5354905751     2.4520167926
C     0.3260645655     -1.3510047477     3.7710776444
C     0.9455260094     -2.1651672453     2.7402704301
C     -0.9619886346     -0.904279859     3.5781068497
C     0.3172152385     1.0332833351     3.852091864
C     -1.0161750937     0.5608955899     3.6272989272
C     0.7787296717     2.0970993825     3.0805662427
C     2.7602516077     0.7611212093     2.3664339671
C     2.0937165618     2.0068879005     2.4328167989
C     2.5682289651     -1.2414082666     1.1347978561
C     2.9716390699     0.1645768426     1.0601793923
C     1.9347909079     -1.9078635579     0.0386061346
C     0.1837417575     -2.7109208612     1.6713368689
C     0.8331872178     -2.8194737508     0.3606242293
C     -1.7480136047     -1.3826928667     2.4817457795
C     -1.259921293     -2.4363552322     1.656011942
C     -1.7520635385     0.9607253864     2.4904031405
C     -2.3284031206     -0.2332421468     1.8600988437
C     -0.1168628429     2.7063903646     2.0798437061
C     -1.3260979689     2.0511221247     1.6584878016
C     2.046407533     2.7771329999     1.2508280037
C     0.7056841454     3.29590274     1.0843695464
C     2.7942505925     0.8841747842     -0.15354405
C     2.4377033236     2.2705708545     -0.0174177336
C     2.0166380828     -1.287706877     -1.2721407417
C     2.3928533173     0.136127029     -1.3676104183
C     1.250555552     -1.8656174116     -2.3398320948
C     0.0563649254     -3.3011499833     -0.729167426
C     0.3622558903     -2.9180449859     -2.061627565
C     -1.9685615898     -2.5847383382     0.4403526523
C     -1.3776343419     -3.2615690468     -0.6452645187
C     -2.7276174125     -0.229828433     0.503251486
C     -2.7526403816     -1.5026094693     -0.1291935749
C     -1.7328486353     2.0779639559     0.2305864173
C     -2.5320754984     0.9828633695     -0.3073684588
C     0.3630750609     3.3105686192     -0.2744754789
C     1.5443874812     2.8502271437     -0.9978171699
C     -0.9314273467     2.8662810134     -0.7130239425
C     1.8687865099     0.8735817866     -2.4564684048
C     1.3989772762     2.2453011296     -2.2255879914
C     0.6665241184     -1.0524450731     -3.4158991572
C     0.9955596022     0.2860073206     -3.4807463183
C     -0.8907872191     -2.6591841933     -2.8076026822
C     -1.9447387776     -2.8100088001     -1.9027373999
C     -2.7608020354     -1.6660539707     -1.5857725775
C     -0.7338835892     -1.4891148885     -3.5852392046
C     -2.6564660321     0.813226371     -1.7335719398
C     -2.6823307909     -0.5333183882     -2.3717302612
C     -1.7555958842     -0.4953754521     -3.508433663
C     -1.0401380507     2.6107031942     -2.1121807949
C     0.1539369134     2.3747539693     -2.8870270729
C     -0.0488423422     1.2474903727     -3.7713651138
C     -1.9872424264     1.6739131553     -2.6044766111
C     -1.3834875825     0.8613459112     -3.6855996524


