56

 C     1.287396274     -0.101601844     3.8503197674
C     2.3612544957     -0.4198008186     3.0754157117
C     2.1200679832     -1.7609439182     2.4804370655
C     0.4367170461     -1.3099256318     3.9621913667
C     0.827698241     -2.1970786715     2.878977885
C     -0.8599670135     -0.8675464759     4.0452518198
C     0.422912285     1.0207904724     3.4722607099
C     -0.8844085572     0.608573382     3.7536593014
C     0.7175040854     1.7860439521     2.2588873411
C     2.8179709128     0.4441541169     2.0482045508
C     2.0607968966     1.6218762996     1.6937279394
C     2.5299106364     -1.7015635074     1.1575110985
C     3.2473122889     -0.4230651045     0.9766649273
C     1.6764122809     -2.144543409     0.0864578651
C     -0.1237643931     -2.5473951822     1.8343026092
C     0.3102544881     -2.5229449238     0.4232630017
C     -1.8495657355     -1.4437478798     3.2473457681
C     -1.5117905906     -2.2611287229     2.1264925011
C     -1.9575565238     0.8693967277     2.8738956639
C     -2.6965341069     -0.3618685775     2.742006576
C     -0.3772695209     2.1723873318     1.3761838725
C     -1.7379516598     1.7070709038     1.6978285228
C     -0.08985279     2.5911143409     -0.0249272809
C     2.311359025     2.1335915675     0.3933045927
C     1.2514743588     2.6722270179     -0.4372502054
C     3.4630214978     0.0882242218     -0.2720248706
C     3.2258519925     1.4751889073     -0.4760794677
C     2.0380177325     -1.6828252969     -1.2619022009
C     2.9868503643     -0.632955337     -1.4530170139
C     1.0697927129     -1.8700636051     -2.3115734537
C     -0.7155832597     -2.4203894906     -0.6422722164
C     -0.3117461885     -2.2013497388     -1.9692645627
C     -2.4333690208     -1.8965588779     1.0561067027
C     -3.1998081983     -0.7264459672     1.5054330898
C     -2.1063154207     -2.0402266588     -0.2982916572
C     -2.6709629065     1.5266039104     0.6494466934
C     -3.4571281324     0.3016457186     0.5851505683
C     -1.1240652542     2.4589221028     -1.0957523885
C     -2.4049572005     1.9411004077     -0.7254480535
C     -0.7430092904     2.2551512559     -2.4590997388
C     1.6375290175     2.4541218427     -1.8447474353
C     2.7983381224     1.640341485     -1.8342919383
C     2.7813338674     0.3599380262     -2.4944253301
C     0.6720058032     2.2168969718     -2.8318489925
C     1.0867068093     -1.0793625436     -3.4765938368
C     1.8375063902     0.1477841153     -3.5105046273
C     0.8811518244     1.1835782074     -3.7863282579
C     -1.1603788175     -1.5128181932     -2.9530778578
C     -1.429981669     1.2859651551     -3.3047207006
C     -0.2928928514     -0.8106525096     -3.8639695655
C     -0.4199598403     0.5688052624     -4.0324053686
C     -2.8648003984     -1.2229517821     -1.2352840787
C     -3.5283965702     -0.0646667689     -0.7583790461
C     -3.0816127352     1.0480047123     -1.5892304763
C     -2.3357786931     -0.9055966006     -2.5459916863
C     -2.4877401137     0.5505196222     -2.7620252035


