56

 C     1.4866569266     -0.1263817205     3.7023069943
C     2.6422718317     -0.3246711944     2.9742546972
C     2.5656950108     -1.6687922017     2.3445287348
C     0.6377723866     -1.3379838076     3.5591467887
C     1.3393881057     -2.2923590109     2.7503062725
C     -0.6518376266     -0.9231032133     3.2077552546
C     0.6814581114     1.0390525051     3.4938416959
C     -0.665901246     0.5487246673     3.2631983158
C     1.1746209246     2.0804311745     2.6762374208
C     3.062343062     0.6305212699     1.9938532202
C     2.3922972854     1.8714924704     1.9090850289
C     2.8737442098     -1.5280513087     0.9865910672
C     3.2824931256     -0.1287729187     0.7756568558
C     2.1277499003     -2.2442639929     -0.0357939572
C     0.6212975027     -3.0102264638     1.8060191503
C     1.1304894684     -3.1420660569     0.4451570515
C     -1.4273000721     -1.6342595496     2.2039353207
C     -0.817372818     -2.8078360306     1.6723361771
C     -2.3723028528     -0.8833068638     1.3545177249
C     -1.525403346     1.235274869     2.4329629401
C     -2.4265736287     0.5295953184     1.5410643148
C     0.2556130542     2.8334832368     1.8439588966
C     -1.094252804     2.467970547     1.7844451582
C     2.2078530856     2.4985023246     0.6140214358
C     0.9243308681     3.1835726135     0.6000944455
C     3.0599227198     0.4484875787     -0.4558541812
C     2.6102162256     1.8323286105     -0.5494201682
C     1.9381145846     -1.6229236865     -1.3611035672
C     2.4646711265     -0.3096840135     -1.5404859276
C     0.7963225613     -2.0078802934     -2.2135059761
C     0.0144743599     -3.4516946934     -0.3835199533
C     -1.1750820584     -3.2475818116     0.3659165334
C     -0.1733078587     -2.9105878663     -1.6873629101
C     -2.7587272752     -1.3978757402     0.026223423
C     -2.1211697197     -2.5763576497     -0.4601832546
C     -1.5960999673     -2.6165462062     -1.8208048706
C     -3.2194169451     -0.4672510051     -0.9918344683
C     -2.7311353308     1.4493424706     0.4608412154
C     -1.8422105316     2.6007640887     0.5610689191
C     -3.1338305398     0.9868847022     -0.7734016533
C     0.2009850794     3.3119963344     -0.5830258419
C     -1.2381747486     3.0986928042     -0.5993134178
C     1.8622583157     1.965122154     -1.7727965112
C     1.8541905917     0.6625552224     -2.4279762897
C     0.7140652407     2.7637118704     -1.8292510823
C     0.3061646383     -1.0721991377     -3.2129987607
C     0.8145633151     0.3093873784     -3.2609435126
C     -2.0300256361     -1.6941478628     -2.7607813264
C     -2.9754651522     -0.6964839377     -2.3507443359
C     -1.0475416531     -1.0272923969     -3.5653613545
C     -2.6700149089     1.6340783987     -1.9879016373
C     -1.6216442568     2.5768845774     -1.897395753
C     -0.403967998     2.36794593     -2.6645484399
C     -0.2891309672     1.2255473293     -3.4878918321
C     -2.5948739142     0.5982597368     -2.9735352326
C     -1.4392597651     0.3999704519     -3.7015888623


