56

 C     1.50914728     -0.1775344937     4.2490434891
C     0.7247729673     -1.3171752836     4.3552547962
C     1.2210345678     -2.2975427232     3.4571081055
C     2.5084022021     -0.3883543909     3.1739790912
C     2.2922638773     -1.6595179471     2.6212120054
C     2.4317440809     0.7342268906     2.2936281068
C     0.6803068406     0.8874585683     3.7983420967
C     1.3523917851     1.6007569469     2.7622702637
C     -0.6744387398     -0.9791817214     3.9580181192
C     -0.6926231072     0.4265565147     3.5877518315
C     0.1125062945     -2.8229035826     2.7712108555
C     -1.075204599     -1.9014293561     3.0051350511
C     0.2894596502     -3.3178146812     1.5012773086
C     2.2889782914     -1.842545178     1.1679276541
C     1.450020016     -2.8796428406     0.6795559292
C     2.6236082751     0.6094831462     0.8876610141
C     2.5476977253     -0.7071293423     0.2666668947
C     2.2321048634     1.7520148332     0.1409388351
C     0.6071544559     2.3517356677     1.8523987422
C     1.2784707155     2.6902113365     0.6537965392
C     -1.3606682952     0.8674699546     2.4240006654
C     -0.839264424     2.0841635314     1.7631622202
C     -1.8780224844     -1.5047487843     1.8625293613
C     -2.094910017     -0.0959239358     1.5878721269
C     -0.8240878449     -3.3959800124     0.6396647064
C     -1.8972156478     -2.3996276632     0.7530695526
C     1.0327489646     -2.9097135041     -0.6779339158
C     -0.3639429166     -3.3392629844     -0.6826026078
C     2.1847406572     -0.76855742     -1.1549869483
C     1.4464855105     -1.9345903371     -1.6194660474
C     2.0957908544     1.7285466651     -1.290075802
C     2.1035190795     0.4721677292     -1.9651914288
C     0.5908800248     3.276947768     -0.4579729727
C     1.2211767752     2.8160514729     -1.6862166083
C     -1.4860841646     2.5419441566     0.6351096563
C     -0.8082557186     3.3489774443     -0.394585063
C     -2.5598910032     0.3137598662     0.2693525624
C     -2.4636225387     1.7017612108     -0.0621460525
C     -2.2284997725     -1.9562522423     -0.5643698175
C     -1.3172966018     -2.6601884074     -1.4855091929
C     -2.6058117618     -0.6213522522     -0.854921247
C     0.5755318074     -1.7835242073     -2.7719967039
C     -0.8743481537     -2.0373670282     -2.6086911257
C     1.4279471825     0.4713596013     -3.2516651991
C     0.6720861412     -0.6960304862     -3.6113724347
C     0.4837760564     2.7409422318     -2.8848939527
C     0.6881265909     1.6099963064     -3.7100088222
C     -1.560762337     3.218558322     -1.597198243
C     -2.5382236515     2.1435003827     -1.3878708498
C     -0.9552797955     3.0066393851     -2.8272978778
C     -2.4562640236     -0.1423414668     -2.2647099281
C     -1.6005528144     -0.909376294     -3.1484104119
C     -0.685420848     -0.249566863     -4.0098531243
C     -0.6583806723     1.1332687621     -4.1241725899
C     -2.5257581734     1.2682799495     -2.5296745124
C     -1.6480433863     1.8983967854     -3.4941440808


