56

 C     1.1499579995     0.1251722272     3.9366041401
C     2.3116122039     -0.0360196891     3.1293938232
C     2.3574423937     -1.3699278129     2.6816325673
C     0.3105583881     -1.0365641158     3.7445793833
C     1.0148616907     -1.9381010721     2.9142757881
C     -1.003417046     -0.58507231     3.3678852996
C     0.3550997255     1.2588589772     3.7616063826
C     -1.0450148837     0.8193117853     3.6107823143
C     0.5967976083     2.1791763827     2.7157681853
C     2.5027327862     0.8184200804     1.9596685068
C     1.6355800378     1.9230093004     1.7131614615
C     2.8991893851     -1.3796697537     1.3599179356
C     2.9461771806     -0.0023449698     0.857960921
C     2.5360950168     -2.3885723114     0.5237949294
C     0.3666515324     -2.5725734414     1.8205570935
C     1.2722365049     -3.1145955137     0.8282034493
C     -1.6425613006     -1.0993024071     2.1671633813
C     -0.981931939     -2.1472180763     1.3836062155
C     -2.5402605469     -0.2215377174     1.4899740481
C     -1.7156922093     1.7024328334     2.7446974466
C     -0.7146238103     2.6663257049     2.2740479173
C     -2.6187931253     1.1924594897     1.8097780863
C     -0.8527752184     3.2374243996     1.052748396
C     1.3989119156     2.3052771192     0.3262429132
C     0.2733873811     3.1950917885     0.0865231699
C     2.6375550861     0.2701334538     -0.4989390193
C     1.8924485787     1.5025732182     -0.7871355023
C     2.6196095208     -2.2199183002     -0.9034811697
C     2.6365112737     -0.8725851377     -1.4499827207
C     0.7933497396     -3.5511820481     -0.3749891445
C     1.7574089428     -3.21115721     -1.4562335646
C     -1.3725177033     -2.3519597516     -0.0063742584
C     -0.5313385495     -3.1944212836     -0.8354614084
C     -2.8176719933     -0.3544551635     0.0788156682
C     -2.2262424294     -1.3837803424     -0.7000620646
C     -2.8633251297     1.9216664008     0.5833654131
C     -2.0872769746     3.0630452207     0.2821504093
C     -3.1373401513     0.9527434555     -0.4656191261
C     -0.2690685612     3.3684581926     -1.1741348192
C     -1.7432782087     3.313757954     -1.0738306568
C     1.2451774704     1.6356506963     -2.1073906551
C     0.1538509255     2.5660925047     -2.2866046444
C     1.9849461573     -0.7060304844     -2.709102782
C     1.2496612514     0.5224294785     -2.9900625296
C     1.0373184698     -2.97507745     -2.6035279934
C     -0.4124360906     -2.9678456605     -2.2197042713
C     1.2485527202     -1.7860046709     -3.3018554404
C     -2.0288559173     -1.101566097     -2.1392587229
C     0.0134085265     0.1547363416     -3.6775835135
C     -1.0592337445     -1.8847715502     -2.8729693405
C     -0.0583651932     -1.238815909     -3.667962823
C     -2.8387001648     1.2491185687     -1.8020214785
C     -2.1834318517     2.4949455396     -2.0982432683
C     -1.0434323737     2.1755894774     -2.9696505514
C     -2.2377196959     0.218306432     -2.622496003
C     -1.1717855905     0.8588632467     -3.4102277638


