56

 C     1.5748391187     -0.0485237843     4.2429619189
C     0.830005987     -1.2879313335     4.1691664597
C     1.6443615358     -2.2066675357     3.4661531773
C     2.6285373503     -0.130597475     3.2257557622
C     2.7769734162     -1.4334086491     2.8123257428
C     2.4058014491     0.91641694     2.2199998032
C     0.7347277989     0.9924289417     3.8528689166
C     1.3111449915     1.6942093569     2.7094339002
C     -0.4997799139     -0.9996661754     3.653037213
C     -0.5904126532     0.451383595     3.6295699055
C     -1.0534874581     -1.7173978897     2.5180911767
C     1.0911623023     -2.9924282888     2.4888086484
C     -0.2607632793     -2.8169061734     2.0239261705
C     2.7873082539     -1.7532778788     1.4104850429
C     1.9398518129     -2.8900657794     1.2789889449
C     2.5117905405     0.6505190789     0.8096666639
C     2.7176863556     -0.7235145029     0.3764876347
C     1.8757997717     1.5998760225     -0.1062744851
C     0.4769370211     2.3922526789     1.8150691439
C     0.9551808512     2.5783376581     0.4504922652
C     -1.3976245615     1.090179577     2.713133914
C     -0.9294006992     2.2660401425     2.0124919237
C     -1.9319876786     -1.0112351799     1.532473121
C     -2.1976718111     0.3612417427     1.7548963708
C     -2.0887863182     -1.4650569682     0.1407409515
C     -0.2330682383     -3.0276178657     0.6068446045
C     1.1598405219     -3.0608790593     0.1601133719
C     -1.2149511299     -2.5444787065     -0.285353218
C     2.2168856211     -1.1103269563     -0.9352830526
C     1.5005138079     -2.3660758017     -1.0320580004
C     1.7931089718     1.2965159259     -1.5342624031
C     1.932520832     -0.1033933374     -1.9613278569
C     1.0583144955     2.1939142489     -2.3754735567
C     0.0938192983     3.2951446525     -0.4139633443
C     0.2929378389     3.2440868818     -1.8010106313
C     -1.8080427747     2.4845207047     0.9073224758
C     -2.5659922721     1.2704938455     0.683701607
C     -1.3758678578     3.2459813227     -0.1612693778
C     -2.6338349308     -0.5877465381     -0.9119519338
C     -2.8436040796     0.8419226132     -0.6299944609
C     -2.4218309768     -0.9424378256     -2.2849005182
C     -0.8736130361     -2.7001131615     -1.6595670595
C     0.5644125632     -2.5726828752     -2.0565238458
C     -1.6280986073     -2.0653049857     -2.6433231364
C     1.261350021     -0.5203409637     -3.1582869067
C     0.6360036901     -1.8129614183     -3.2176269965
C     -0.7163746555     -1.6581398771     -3.7310705011
C     0.2512161054     1.6888624632     -3.5043528343
C     -2.1298212155     0.0983040123     -3.3169239112
C     0.3370068514     0.3794475653     -3.8582773018
C     -0.9441351453     -0.3606573372     -4.0744346098
C     -1.0159199328     3.2699935862     -2.4625716655
C     -2.010580131     3.0431980449     -1.4091302063
C     -2.6811205498     1.8298990897     -1.6851768083
C     -1.0943425767     2.3143116447     -3.4322462025
C     -2.218926692     1.4203519878     -3.0223720155


