56

 C     1.4561446657     -0.1052236484     3.9774633848
C     0.6779817499     -1.2077268046     3.5885821435
C     1.2916033834     -1.926013931     2.4721546512
C     2.5722805503     -0.0722854596     3.1288087884
C     2.4436542819     -1.179101806     2.1260270131
C     2.6819454705     1.2275260343     2.5874236105
C     0.6307796897     1.067634571     3.583805499
C     1.3696658446     1.9065823552     2.7496163665
C     -0.6950768206     -0.8132140369     3.4626560016
C     -0.6723828162     0.6323683624     3.1835403336
C     -1.4872377526     -1.6145923832     2.726159879
C     0.4627056809     -2.5303216889     1.48872516
C     -0.9068085989     -2.6991976991     1.9032999198
C     0.7396189635     -2.3438360469     0.05947837
C     2.7794597318     -0.97736383     0.7584363097
C     1.8933069837     -1.5149107022     -0.30238707
C     3.3923560584     1.3692371068     1.4184607624
C     3.5731938479     0.206425897     0.5100021972
C     3.1206498829     2.5057078239     0.6255679672
C     0.7589021676     2.4901303505     1.5751806833
C     1.687866995     2.945569816     0.5987178995
C     -1.3203133723     1.1121340729     1.9966170018
C     -0.5995480399     2.0679517916     1.1556320931
C     -2.5791760189     -1.0383751488     1.9742430217
C     -2.4119935117     0.2811768825     1.4342125181
C     -1.8623991443     -3.0166736745     0.9705682546
C     -3.0285994642     -2.1003016928     1.1503420356
C     -0.3372364999     -2.6160756032     -0.9247953351
C     -1.6017343915     -3.1137278539     -0.4234672245
C     -0.3415492704     -1.9332058354     -2.239491018
C     1.9036096333     -0.8630225537     -1.6119067481
C     0.7478881564     -0.9926262957     -2.5316504373
C     3.635722707     0.7558168729     -0.7704784644
C     3.5319206371     2.2373823763     -0.688383452
C     2.7710824491     0.264535839     -1.799514329
C     1.3031798885     3.0352300949     -0.7608351478
C     2.448346089     2.5438144433     -1.5270616507
C     2.229386555     1.4687475075     -2.4508333428
C     -1.0152100497     2.2259339368     -0.2411543409
C     -0.013815255     2.7221210535     -1.1927489928
C     -2.928419796     0.5354504232     0.0831215451
C     -2.2162452492     1.5245410534     -0.7591214352
C     -3.5945237587     -1.8660937451     -0.0577709517
C     -2.8462160837     -2.69827294     -1.0549950811
C     -3.6761129346     -0.5277748637     -0.5706631126
C     -1.613270586     -1.7330497946     -2.917433948
C     -2.8418993991     -2.0226201585     -2.2215363613
C     -3.5521255278     -0.7103107431     -1.995089891
C     -2.3693581758     1.4163097144     -2.1952471931
C     -1.8829604963     -0.4751163037     -3.5543528775
C     -2.9590056329     0.2170221018     -2.7732940762
C     0.4513901192     0.1287441307     -3.3774958448
C     1.0181327079     1.4138655816     -3.0356038995
C     -0.0887789134     2.2735943649     -2.5599712329
C     -0.8878499076     0.426229263     -3.733097543
C     -1.2429274031     1.6892514122     -3.0184623889


