56

 C     1.1354017066     -0.0895477083     3.9943625842
C     2.3751753719     -0.3707414591     3.4769797562
C     2.2714980129     -1.6488024251     2.6905930378
C     0.2647055943     -1.2827286165     3.7086280119
C     0.9399764884     -2.1272935732     2.7437505215
C     -0.9919117656     -0.8412075928     3.4646879141
C     0.4059782386     1.0841287161     3.5893254296
C     -0.9543166961     0.6450921536     3.4478183402
C     0.9683321067     1.9716257142     2.5825057892
C     3.045876756     0.5713939052     2.676624262
C     2.3398631736     1.7363042349     2.2016719058
C     2.9728080427     -1.460841668     1.4799805933
C     3.5506190528     -0.1348585929     1.5215697391
C     2.4012718433     -1.9630579854     0.2614138781
C     0.2565582351     -2.5237373255     1.5365533054
C     1.0776548828     -2.6219690779     0.3304224897
C     -1.7461264148     -1.2872020936     2.3292437061
C     -1.1703017228     -2.1905545219     1.3743521684
C     -1.7837974454     1.0572076626     2.4299903942
C     -2.4192777103     -0.1395969102     1.8282070599
C     0.0442529751     2.5340549657     1.5648392484
C     -1.3750810888     2.1311898174     1.5566841612
C     0.5743668237     2.9361184239     0.3030750261
C     2.7363908204     1.905660756     0.8071805398
C     3.4576892333     0.7032775967     0.3888380023
C     1.8963994003     2.5149750274     -0.0984373249
C     2.7422101021     -1.2577583113     -0.9359092901
C     3.1640214679     0.1270421419     -0.8473898192
C     1.9501117401     -1.3844614544     -2.1194978336
C     0.4026302652     -2.8475975328     -0.8817609051
C     0.9327266478     -2.3401234409     -2.1550548077
C     -1.8066448572     -2.2418462438     0.0635886947
C     -1.0391969618     -2.8379825586     -0.9798242835
C     -3.0009050717     -0.0983477077     0.5486089505
C     -2.8701042805     -1.2784493009     -0.3143559027
C     -2.157950406     2.2615128405     0.4020832496
C     -3.1185915622     1.2163569826     -0.0075514363
C     -0.2311372582     2.98307356     -0.8927049874
C     -1.6132504502     2.8232970959     -0.8171768124
C     1.80729077     2.0555597093     -1.4831717976
C     2.4207894369     0.8626059175     -1.8521581305
C     1.7050513656     -0.0748556633     -2.6944144497
C     0.4921791831     2.3667420357     -1.9935901901
C     0.4683461371     0.2510578717     -3.3265734614
C     -0.1651557132     1.5446770005     -2.9633160061
C     -0.1342166561     -2.1268412384     -3.0360902321
C     -1.3698413758     -2.5739453368     -2.3498806269
C     -0.3852130565     -0.8798658431     -3.6544652172
C     -3.1926712162     -1.096774504     -1.7046656811
C     -2.4088983459     -1.768193892     -2.7112655158
C     -1.8337317633     -0.7286311859     -3.6287936284
C     -3.3169790602     1.340290876     -1.3988059833
C     -2.2851770148     2.2651261871     -1.926711899
C     -1.6170804844     1.6404539089     -2.9949829304
C     -3.3972634498     0.2303986168     -2.2134436888
C     -2.4153540267     0.4585900662     -3.3215859075


