56

 C     1.4684678393     0.0345183828     3.880751514
C     0.6555107947     -1.1667963285     3.743281225
C     1.2143394944     -1.962792784     2.7128218118
C     2.5609185402     -0.0456521058     2.9598577927
C     2.5130787591     -1.345008425     2.3642648509
C     2.5428990849     1.0861683271     2.0839269189
C     0.6574034792     1.1046994542     3.5051504384
C     1.2698152392     1.7638475862     2.3534495182
C     -0.7132091526     -0.77877792     3.6665017757
C     -0.7258292736     0.6625694163     3.4413267188
C     -1.560977265     -1.5741254675     2.8881892093
C     0.3802188903     -2.4959754568     1.6381093389
C     -1.0093503386     -2.4167943709     1.8279949675
C     0.8931596579     -2.5687739995     0.2427850588
C     3.0053257096     -1.4831419453     1.0982759237
C     2.2854634234     -2.2863101445     0.0772446619
C     3.0382745178     0.9607699728     0.7689767936
C     3.5653157712     -0.3402271851     0.4158873471
C     2.4183905164     1.7727567444     -0.2940982365
C     0.4773765773     2.2392581457     1.3019250281
C     1.0904744709     2.3600846621     -0.045372717
C     -1.5886736868     1.2357646298     2.491504721
C     -1.0056808449     2.1339939967     1.4563111943
C     -2.6871699786     -0.950469424     2.335441946
C     -2.7424889993     0.4420125679     2.1245567591
C     -1.9196648524     -2.3657023331     0.6810155442
C     -3.0449006188     -1.6012315499     1.0670072044
C     0.0162390079     -2.3908194414     -0.9140507112
C     -1.4316888976     -2.2836733136     -0.6746023063
C     0.5623823322     -1.8765607371     -2.1882742502
C     2.7932815924     -1.9173575891     -1.1626166618
C     3.6412598089     -0.7131688317     -0.9500574734
C     1.9755906399     -1.7017686092     -2.2993744848
C     2.7912922016     1.4624981327     -1.6467582547
C     3.4107111468     0.1726443445     -1.9570549195
C     2.5262870048     -0.5077213876     -2.9388106413
C     1.8707110376     1.6967621739     -2.6969549948
C     1.6898909919     0.427329844     -3.4628778331
C     0.2138589265     2.6370533596     -1.1624822947
C     0.613638794     2.2396569076     -2.4902967883
C     -1.7982078721     2.4131987136     0.3477692507
C     -1.2095785713     2.7153812084     -0.9494295554
C     -3.4434601717     0.6565979933     0.8700374045
C     -3.6324443243     -0.6633216621     0.2116059952
C     -3.0918337947     1.7383838235     0.0940189744
C     -2.2691462374     -1.6013956813     -1.6051363162
C     -3.3937865555     -0.7959656834     -1.1622738299
C     -0.2866892539     -1.0025688175     -3.0325770206
C     0.3000070132     0.1887419743     -3.5983885915
C     -0.3424291728     1.4608495261     -3.3223620187
C     -1.6841997094     -0.9233767079     -2.7674602722
C     -2.1266334064     2.318499314     -1.9544975041
C     -3.2428260804     1.6490686403     -1.3331443831
C     -3.3959934278     0.3968984648     -1.956225967
C     -1.685701427     1.5166681377     -3.0781064952
C     -2.4090193504     0.2728014576     -3.0067053659


