56

 C     1.4553502936     0.0215480135     3.9313416795
C     0.6376088717     -1.1352530488     3.7510293017
C     1.1762858437     -1.9712738204     2.7318791961
C     2.4350136999     -0.0217109507     2.9021027117
C     2.3196578769     -1.2397349039     2.1660617625
C     2.4168356373     1.1848643393     2.1123421203
C     0.6085865533     1.1172058612     3.5324028279
C     1.236032657     1.9166605752     2.5242573088
C     -0.7445158867     -0.7362861344     3.5868119328
C     -0.742849325     0.7263482692     3.3373026459
C     -1.6204514625     -1.5430041734     2.8868170325
C     0.295774588     -2.7314664877     1.8721793756
C     -1.1279617899     -2.614670596     2.0353337252
C     0.789187547     -3.0187815117     0.5798894422
C     2.6131983826     -1.2845512981     0.7705390342
C     2.004624316     -2.371098398     0.0686261954
C     2.8293822857     1.1955553591     0.755314795
C     2.9478942836     -0.0643245913     0.0243815993
C     2.4539142527     2.3792207287     0.0643679359
C     0.4668242421     2.6234659034     1.5635034535
C     1.2535093864     3.1075350367     0.4865843211
C     -1.5218044888     1.2915409887     2.2641383679
C     -0.9385767939     2.2913350063     1.3612201554
C     -2.6906669664     -0.8947318347     2.1884644289
C     -2.5871243583     0.4693094182     1.7775266773
C     -2.001114556     -2.6654924984     0.8725013669
C     -3.0004212506     -1.6618254057     1.0376310801
C     -0.095861811     -3.2575096295     -0.5523770449
C     -1.5023966997     -2.9484263816     -0.4538025571
C     1.9094003703     -2.3519109196     -1.329658497
C     0.6271726575     -2.9154762001     -1.7143982125
C     2.7042688907     -0.0186231849     -1.4212302572
C     2.1116625219     -1.1659326259     -2.0578406602
C     2.5370800623     2.4748466406     -1.3552502609
C     2.4623671038     1.2274917039     -2.0786799512
C     0.6345641414     3.5602007436     -0.6957726211
C     1.5204047551     3.3465423155     -1.8295520904
C     -1.4834373739     2.4558009609     0.0111744962
C     -0.6936561492     3.1277076477     -0.977011183
C     -3.0640579     0.5682948062     0.4025352181
C     -3.3645304566     -0.7878563969     -0.0370019907
C     -2.5186084052     1.5234272135     -0.4835841102
C     -2.106301038     -2.2789569014     -1.5686105626
C     -3.0671147342     -1.184442755     -1.3317306086
C     0.0801324749     -2.1271566146     -2.7472799599
C     1.0147193286     -1.0422059484     -3.0317151066
C     -1.3142432678     -1.8858971779     -2.7251303944
C     1.3799178239     1.3572485215     -3.0536677613
C     0.7651721135     2.6209542392     -2.77329451
C     -0.6395279584     2.6342194486     -2.3751143902
C     0.5595988361     0.2404910499     -3.408217176
C     -2.5187362004     1.1576711637     -1.8872210454
C     -2.8067264734     -0.1579872087     -2.2752459122
C     -1.7581865347     -0.6081064776     -3.1841149338
C     -1.4482221536     1.6158468883     -2.7777210421
C     -0.8890477632     0.449361213     -3.4730372981


