56

 C     1.5128620016     0.0632011512     4.0311371614
C     0.7386954967     -1.1279889548     3.7929230815
C     1.5144287481     -2.053622141     3.0674445166
C     2.636529048     -0.013904524     3.0920789781
C     2.6537940254     -1.2810484244     2.5121004121
C     2.6131464028     1.107983084     2.1997426233
C     0.7387458034     1.1278049269     3.5371944835
C     1.4871074166     1.926550755     2.6031349102
C     -0.5729840977     -0.7637255514     3.2485754222
C     -0.5723521369     0.6787631627     3.0887844068
C     -1.2154891971     -1.5743279257     2.3034082895
C     0.9312804408     -2.7713028801     2.0250336026
C     -0.4892352169     -2.7624174349     1.8347410595
C     2.6462436066     -1.4823401091     1.0913770488
C     1.7248060269     -2.5541757694     0.8163846736
C     2.8176436823     0.9436558356     0.7833101646
C     2.7225941017     -0.3854721016     0.1703587097
C     2.4370082897     2.055584753     0.0117516602
C     0.8229892784     2.7649618934     1.7071310627
C     1.60364085     3.124430036     0.5601815583
C     -1.2124799245     1.3188744553     2.0026951086
C     -0.6189606293     2.5762295703     1.497533002
C     -2.1349105349     -0.9262901157     1.342620632
C     -2.0656817597     0.5166375601     1.1307641446
C     -2.6900599054     -1.7287202377     0.3194844829
C     -0.9061632944     -3.3834448168     0.6569112122
C     -2.1968286547     -3.0810524395     0.0971824085
C     1.1997892226     -2.7903380185     -0.4662569869
C     -0.0183035371     -3.5592851253     -0.4751206342
C     2.118972736     -0.5299472325     -1.1598308959
C     1.4518941969     -1.7899775848     -1.5088133091
C     2.1452379861     1.9594007774     -1.3949349538
C     1.8279218974     0.6743061742     -1.9469656241
C     1.0302365381     3.8219838589     -0.5011335071
C     1.4202970722     3.1421075694     -1.7616603385
C     -1.1795038308     3.1545580889     0.3509188159
C     -0.3696898649     3.969131517     -0.5603046469
C     -2.46304832     1.0606420947     -0.164607942
C     -2.0953824412     2.3899413959     -0.4754437754
C     -3.0053220761     -1.2009313075     -0.9951823396
C     -2.7524555721     0.1452873607     -1.2901550297
C     -2.2601308664     -3.4418013525     -1.260157762
C     -0.8544421283     -3.6191994673     -1.6381526332
C     -2.6935648785     -2.2597847268     -1.9601812384
C     0.536442868     -1.8096853494     -2.6127440128
C     -0.5525365325     -2.7418200655     -2.6780117679
C     -1.776372225     -1.9605700494     -2.9868926254
C     0.7237557378     0.6609856148     -2.9122911613
C     -2.1018261383     0.4395807666     -2.5742373642
C     0.0591564543     -0.5570431301     -3.1385424052
C     -1.3990807266     -0.637305051     -3.2071629861
C     0.3044007307     3.1113893941     -2.5960368623
C     -0.8155080942     3.7694660456     -1.9154797123
C     -1.8002368879     2.7681425696     -1.8507999683
C     -0.1019813134     1.8280244934     -3.0894365357
C     -1.5050898842     1.687896972     -2.7543665839


