56

 C     1.4531749709     -0.1167610113     4.7228888243
C     0.7214629961     -1.2679869655     4.9322354187
C     1.3028150988     -2.3409780668     4.1600541649
C     2.4821758369     -0.3723289871     3.6868887031
C     2.3772246989     -1.7379610281     3.3255508352
C     2.3149563901     0.6245433906     2.6852968923
C     0.5841546085     0.9483653401     4.2326944512
C     1.1610928611     1.4840771584     3.0683045118
C     -0.6581707808     -0.9787452876     4.4336284458
C     -0.7788192039     0.4396220309     4.1471083177
C     0.3160011242     -2.6900775132     3.23128179
C     -0.929490119     -1.8949966224     3.4016861777
C     2.148200751     -2.0464646816     1.9426366393
C     0.8496710572     -2.7411850374     1.8952639051
C     2.4319998073     0.3032655611     1.3099607046
C     2.3719456653     -1.0864768915     0.918862061
C     1.9216319908     1.2461220881     0.330325881
C     0.3356078808     2.0385562756     2.0344975241
C     0.8860582837     2.1417694449     0.7008052269
C     -1.5332044191     0.8174567799     3.0355657033
C     -1.0606879833     1.8319246112     2.1218656812
C     -1.6754010721     -1.5086327508     2.2267645201
C     -2.1702428085     -0.1796891612     2.1719800367
C     0.0261246775     -2.5993074839     0.7877484104
C     -1.3471286071     -2.099822289     0.9329810017
C     1.82904582     -1.3873493141     -0.4064140961
C     0.7166522172     -2.2846885795     -0.457608791
C     2.0983293216     0.9285672816     -1.0837770601
C     1.9947959443     -0.4614616786     -1.4996846082
C     1.729309961     1.9300024996     -1.9973323133
C     0.0306653393     2.6446707417     -0.3686613442
C     0.6180518648     2.8094137125     -1.6107675611
C     -1.8053824272     1.7077388428     0.8768469653
C     -2.4603625124     0.435024157     0.9038045254
C     -1.3820921619     2.2703679572     -0.32591391
C     -1.972165149     -1.6234239106     -0.2571609384
C     -2.5568825135     -0.2830353369     -0.3091003794
C     -0.0386301022     -2.3330634136     -1.6245910417
C     -1.4758526003     -2.1240306417     -1.506207478
C     1.4430796231     -0.7719939764     -2.8303574299
C     0.4297496143     -1.7999030246     -2.8669220713
C     1.5625673713     1.6296100122     -3.3829063414
C     1.3519176137     0.2807979248     -3.822324721
C     -0.2194626284     2.936251615     -2.7744241301
C     0.5122757037     2.4708195283     -3.9368087587
C     -2.0292291319     1.8237449305     -1.5614072837
C     -2.5886563612     0.4776877522     -1.554298678
C     -1.5328177671     2.3900638464     -2.7862869589
C     -1.88963257     -1.5683223308     -2.7071246695
C     -0.7538725827     -1.5662499651     -3.6565236519
C     -2.494162864     -0.2732332671     -2.7931316247
C     0.2073224193     0.3576714704     -4.7495966683
C     -0.3134872888     1.7154623341     -4.7559206066
C     -1.6135844126     1.6396743342     -4.0506754537
C     -0.8831020912     -0.511450173     -4.528087962
C     -2.0455413342     0.326347788     -4.0135107979


