56

 C     1.2539820002     -0.0898373637     4.0909734836
C     2.3167773975     -0.2251970467     3.2215480688
C     2.1837917498     -1.4944298268     2.4846599236
C     0.4032250511     -1.3074238122     3.8944488621
C     0.9385631205     -2.0844253771     2.7832147016
C     -0.9024912637     -0.9241663906     3.908265316
C     0.398764909     1.0672417024     4.0390597893
C     -0.9542844171     0.5614967937     4.1009750134
C     0.6888764404     2.0713974025     3.0688997529
C     2.6425936686     0.7760036926     2.2427139063
C     1.847463965     1.9288931068     2.1927387707
C     2.6378029369     -1.3065529088     1.1626276814
C     2.9788906     0.0893781577     0.9932596801
C     2.0332417759     -2.0357019885     0.1079633091
C     0.0938625077     -2.4851703709     1.6811857791
C     0.7461158154     -2.6795808411     0.3838346561
C     -1.7859915538     -1.2842397689     2.8131404937
C     -1.3093666173     -2.072766477     1.7067865566
C     -1.930200176     1.0240693222     3.2484291205
C     -2.5222299263     -0.1163832982     2.5178735985
C     -0.3765906858     2.5831666723     2.2168212867
C     -1.6726298998     2.0476465447     2.270493123
C     1.5324510076     2.4752055512     0.8790259076
C     0.1606505317     2.8805050054     0.9048837428
C     2.8231740662     0.6879935548     -0.2736093054
C     2.1197765187     1.9795861279     -0.3260283613
C     2.2979315916     -1.5536733105     -1.2031385965
C     2.6967895307     -0.1927965146     -1.3920822847
C     1.5229466114     -1.9645089473     -2.3558879516
C     -0.0655472301     -2.9380743418     -0.7381752175
C     0.3816194941     -2.7443709832     -2.1138787748
C     -1.985544596     -1.8819435094     0.4326433907
C     -1.4711276226     -2.5917019019     -0.6818903332
C     -2.7971052333     0.2882498312     1.1996766936
C     -2.3259407346     1.6474511427     1.0282905578
C     -2.6909464882     -0.6418345503     0.13466951
C     -0.6219775796     2.7973235478     -0.2791660867
C     -1.8894035794     2.0625780619     -0.245140269
C     1.4724286436     2.3128809729     -1.5332566927
C     0.105994712     2.7873072786     -1.4954822733
C     2.1686216549     0.2384821611     -2.6799369548
C     1.5079091859     -0.8858502478     -3.3353956841
C     1.6290627763     1.5292962667     -2.7609156357
C     0.3435863355     -0.6666140045     -4.1291157813
C     -0.7829060027     -2.488260822     -2.9192981106
C     -1.90436437     -2.2725320568     -1.9808763589
C     -0.8049609544     -1.5109142683     -3.8875579747
C     -2.7260233817     -0.1050262531     -1.2172467017
C     -2.316381999     1.2857348708     -1.4115679462
C     -2.5331605044     -1.0466918322     -2.2891771677
C     -1.9694980297     -0.6257697926     -3.5598592696
C     -0.5361669512     2.3836088017     -2.6845356024
C     0.4465958587     1.7165162898     -3.5567771547
C     -0.1678624577     0.6759874588     -4.2227322127
C     -1.7410082572     1.6513666671     -2.6858683217
C     -1.589779955     0.6670718214     -3.7505056619


