56

 C     1.4557875914     0.0237440402     4.1921651246
C     0.6453474121     -1.1636531248     3.9469985597
C     1.3956393756     -2.0161496341     3.1322926964
C     2.5638822154     0.0035133216     3.2328614499
C     2.5825900976     -1.2376048817     2.6358100863
C     2.4372838954     1.1549144852     2.3512426292
C     0.6852895226     1.1315348894     3.8773087058
C     1.3301214271     1.9415727217     2.84556633
C     -0.6869459299     -0.754459572     3.5159554928
C     -0.6960404395     0.7097877282     3.6378802191
C     -1.3135500425     -1.357463856     2.3915689832
C     0.8200865293     -2.6267281781     2.0219533211
C     -0.5841280577     -2.4494943534     1.7360238096
C     2.6622348762     -1.4182418926     1.2197493288
C     1.7346175396     -2.4637755461     0.8851680844
C     2.6417673411     1.0244264124     0.9352090118
C     2.7675660836     -0.3113672628     0.3204458796
C     2.0567464768     2.0500107543     0.1417199567
C     0.5320914649     2.7257862162     1.9768565619
C     1.0326858129     2.9232653179     0.6562049964
C     -1.4727961509     1.4591494667     2.8091292622
C     -0.9136369678     2.6434368289     2.1183314605
C     -2.2469513603     -0.5506299919     1.5450914722
C     -2.397415515     0.8157176796     1.8822238402
C     -2.5570333236     -0.9373373468     0.1611564079
C     -0.9689256864     -2.8441687351     0.4557233376
C     -2.0885055007     -2.2214712875     -0.2642237465
C     1.324352982     -2.7010282444     -0.4216566814
C     -0.0028069655     -3.2564388638     -0.5360372409
C     2.3871434074     -0.5325362656     -1.0755279788
C     1.839806487     -1.8290332358     -1.4829586973
C     1.8654045298     1.8874671311     -1.2748629176
C     2.0930728901     0.6366528906     -1.9178736998
C     0.1660969925     3.2612563713     -0.456281576
C     0.7481524271     2.7283120074     -1.6620940314
C     -1.7262077517     2.8746933065     1.0118964704
C     -2.6666587133     1.7582669538     0.860125278
C     -1.2255051233     3.1946543432     -0.283288364
C     -2.7948379651     0.0525137369     -0.8988190155
C     -2.7875734676     1.426711074     -0.4900622043
C     -2.0231057437     2.4288518764     -1.2500227882
C     -2.4680352263     -0.2293990725     -2.3153686168
C     -1.9578016205     -2.530911302     -1.6178035866
C     -0.6490228871     -3.2224461253     -1.7843236634
C     -2.1054151287     -1.5854840656     -2.6665640293
C     1.2224546651     -1.9668581878     -2.7767602398
C     -0.0338044152     -2.7114426762     -2.8945790891
C     -1.0135241903     -1.8461902346     -3.5917150071
C     1.4434306725     0.4484702656     -3.2001185159
C     1.0950397924     -0.8527922834     -3.6271821868
C     -0.3099512853     -0.7994861611     -4.1405003488
C     -0.0741143569     2.3456171962     -2.7258267543
C     -1.501396956     2.0918832012     -2.4658643676
C     -1.8552989979     0.8229012616     -3.1028423119
C     0.3651773426     1.3325614899     -3.5887419136
C     -0.7728800712     0.5189194032     -3.9847591637


