56

 C     1.5191194682     0.002591164     3.9842657306
C     0.7033581506     -1.1492584612     3.747034041
C     1.322662621     -1.981566719     2.7817535344
C     2.6332193178     -0.062542192     3.0822008644
C     2.5164011425     -1.2544427201     2.3095595691
C     2.7405363758     1.1852207548     2.3645156933
C     0.7489809524     1.1014515759     3.5227767787
C     1.4997442981     1.9240355076     2.6137673627
C     -0.6675743804     -0.729878463     3.4894539504
C     -0.6139471892     0.7002010777     3.2109968106
C     -1.4765565938     -1.5305779069     2.7336121723
C     0.5101843545     -2.7637411475     1.8948787271
C     -0.9200358757     -2.7143622604     2.0704706886
C     0.9873281069     -2.9371538998     0.5477238642
C     2.821925756     -1.2335107011     0.894580926
C     2.0695364303     -2.1094667941     0.0463997645
C     3.2655337712     1.1931056179     1.0730338877
C     3.3066843807     -0.0361352979     0.2982149026
C     2.8215335524     2.2195139606     0.2001581468
C     0.8230515064     2.6109092215     1.5811871751
C     1.6157065641     2.9294887135     0.4195786762
C     -1.2998152625     1.2630098236     2.1106563181
C     -0.6292549636     2.3566414361     1.3835420422
C     -2.4371385134     -0.9231432451     1.8214269602
C     -2.3226221301     0.4433496574     1.4213104477
C     -1.7677576377     -2.9671712301     0.9716215161
C     -2.745763922     -1.9075517484     0.8527750088
C     0.0947486211     -3.1986158527     -0.5489439021
C     -1.2917457381     -3.2208763328     -0.3444433505
C     1.8132371179     -1.8004450547     -1.3441911975
C     0.6290004082     -2.5139645385     -1.7256848432
C     2.944446171     0.315767019     -1.0805702838
C     2.7657701181     1.7116762628     -1.1499671456
C     2.1111175866     -0.5192997621     -1.894598298
C     0.9972301264     3.144273262     -0.8695274168
C     1.6745264702     2.3001862268     -1.8486763704
C     -1.205158166     2.7438538629     0.1730240394
C     -0.380622351     3.2548912804     -0.9433138741
C     -2.7959306793     0.8018008657     0.0879473817
C     -2.3446680763     2.0558690553     -0.4196501016
C     -2.986871606     -1.6027768818     -0.5070491923
C     -2.1670823603     -2.5197795565     -1.2911788
C     -3.1763169244     -0.2432960574     -0.9005501247
C     -0.2017690395     -1.9982220243     -2.6972950357
C     -1.6625330092     -2.0666840278     -2.5030407885
C     1.1797023198     0.0968415815     -2.8629553162
C     0.9448868205     1.5624313081     -2.8194550229
C     0.1070964396     -0.7214801302     -3.3313726625
C     -1.0108186452     2.9134376272     -2.1494023752
C     -2.3072319074     2.3008033376     -1.8335180752
C     -0.377372476     2.0783866032     -3.1162964927
C     -2.9865980703     0.0160849395     -2.3092039179
C     -2.225786347     -0.909846844     -3.0814460413
C     -1.1519503207     -0.1461411726     -3.7318413736
C     -2.6054004752     1.3307352979     -2.7674115127
C     -1.4089463078     1.2053739913     -3.6168834553


