56

 C     1.5292937933     0.0751666069     4.0398294771
C     0.7330294196     -1.1125046673     3.8183282519
C     1.4804604364     -2.0318465225     3.0682702238
C     2.660674146     -0.0356702231     3.1331846037
C     2.6808883636     -1.319324647     2.5678770745
C     2.6743813181     1.0740414081     2.2179942251
C     0.7654423758     1.1347252736     3.5112209794
C     1.4992784415     1.871756738     2.5200663436
C     -0.5894511528     -0.7452580163     3.3022325127
C     -0.5626007321     0.6841339365     3.1204807477
C     -1.2779951814     -1.5654765197     2.3771003195
C     0.8825395661     -2.7091328165     1.9946852904
C     -0.5401332916     -2.7018852107     1.8181123359
C     2.7162341808     -1.5128477489     1.1584812773
C     1.7004424014     -2.4888220684     0.8111068164
C     3.0096205811     0.8962102855     0.8457368074
C     2.9534782134     -0.4379692871     0.2472273722
C     2.660287966     2.0052960881     0.0160771675
C     0.8071297302     2.6039548512     1.5231284243
C     1.5541318869     2.8958325291     0.360085628
C     -1.2881571898     1.3271921805     2.0839396198
C     -0.6548815251     2.467693511     1.4025224521
C     -2.3020153189     -0.925929204     1.5407498672
C     -2.3096479038     0.5350926801     1.414742721
C     -2.8739992465     -1.6949944683     0.4821708579
C     -0.9677290434     -3.2464508171     0.5996185284
C     -2.2667221495     -2.9362585524     0.0969349637
C     1.163986492     -2.6085777575     -0.4933884179
C     -0.0965958059     -3.2759508915     -0.5655678461
C     2.4883131543     -0.5822763247     -1.1436006025
C     1.5417188895     -1.6344433743     -1.5093840982
C     2.6929806877     1.8727746795     -1.372822546
C     2.5480898912     0.5803856566     -1.9779123746
C     0.9328473904     3.3323621462     -0.8782683311
C     1.7050917502     2.7771971379     -1.9659846169
C     -1.2398057161     2.9341485524     0.2065215574
C     -0.4538018537     3.3388952047     -0.9661565475
C     -2.9110666298     1.1049790685     0.2478822781
C     -2.4129405024     2.303046415     -0.2753997413
C     -3.337899735     -1.0753215986     -0.7693086645
C     -3.3115686445     0.2845905886     -0.8977210019
C     -2.2957768327     -3.0998675529     -1.3253740131
C     -0.9335510796     -3.166927805     -1.7272935808
C     -2.8408841424     -1.8991564396     -1.8722006432
C     0.5707504634     -1.3865948413     -2.5845421263
C     -0.6722151856     -2.0740175387     -2.6110502794
C     -1.9353596872     -1.3152156506     -2.7859438676
C     1.6386004022     0.7605995258     -3.0794823144
C     1.0909052811     2.119067029     -3.0088978242
C     0.5675876622     -0.1060704296     -3.242955728
C     -1.1175915451     2.772425223     -2.1612967668
C     -2.334837819     2.1914707177     -1.7347227995
C     -2.772016184     0.9119465148     -2.1145364573
C     -1.9137179441     0.1055074245     -2.9672708829
C     -0.3443549508     2.0485456783     -3.1082635635
C     -0.6908678615     0.6797532923     -3.386963098


