56

 C     1.1493931134     -0.2166627399     4.0463272998
C     2.2461056073     -0.4517964828     3.2414048575
C     2.1281874381     -1.7809599818     2.6120500102
C     0.2797903666     -1.4170363713     3.9565815266
C     0.8891746987     -2.3554582335     3.0250200579
C     -1.003584958     -0.9685283709     3.7162595972
C     0.3300243187     0.9617921882     3.8020521502
C     -1.011783633     0.5047992077     3.6394061125
C     0.7984347863     1.9468033974     2.9205349819
C     2.6798400503     0.4920559435     2.2423039378
C     2.038100714     1.7436266239     2.1876073028
C     2.4353650299     -1.6216931911     1.2458709046
C     2.850112381     -0.2362151803     1.0091642277
C     1.6999602081     -2.3230950845     0.2317065401
C     0.0884233191     -2.9605706546     2.0455487168
C     0.5864086479     -3.0931554377     0.6862332012
C     -1.8080442859     -1.4886052007     2.6394352504
C     -1.3076305015     -2.5786270129     1.902761172
C     -1.7660440543     0.8565926124     2.5020838546
C     -2.3289950982     -0.3594737078     1.9089030115
C     -0.1131922519     2.5522218544     1.9636069089
C     -1.3641003747     1.9391737785     1.648987377
C     1.95022806     2.4178096482     0.9245713473
C     0.6696501785     3.0924647872     0.8852233083
C     2.7102904179     0.3817322079     -0.2620618756
C     2.4510003931     1.8322105656     -0.2788634901
C     1.7183132368     -1.7811178252     -1.1387722549
C     2.2868133611     -0.4414713353     -1.3925489503
C     0.7680821995     -2.278696871     -2.0604796965
C     -0.545382736     -3.2345148902     -0.1893704194
C     -1.6909674187     -2.7141703666     0.5271940368
C     -0.4049836861     -2.9922062307     -1.5444702431
C     -2.6623748536     -0.4365045382     0.5303715144
C     -2.5225891921     -1.7503772848     -0.1220078017
C     -1.8741185432     1.959218639     0.2663204002
C     -2.58425336     0.78147524     -0.2730091941
C     0.0703056999     3.3747765062     -0.3296047611
C     -1.2531947604     2.8332288598     -0.6559749162
C     2.0080632053     2.4221671134     -1.4994877997
C     0.8525299712     3.2747705075     -1.4988104227
C     1.937628612     0.2207059468     -2.6207538534
C     1.8905762172     1.6291466988     -2.6731411659
C     0.3432832142     -1.5423625339     -3.2536022112
C     0.8938309078     -0.299418395     -3.5197523611
C     -1.5229267154     -2.5084401057     -2.2551681422
C     -2.5521269856     -1.8002480947     -1.5470714417
C     -1.0806357218     -1.7193265014     -3.3952795638
C     -2.7094006176     0.6615063715     -1.7008891754
C     -2.7782270066     -0.6144735201     -2.2973807661
C     -1.9058007298     -0.6001835592     -3.4864921825
C     -1.3005846462     2.6366534611     -2.1069386803
C     0.0036184257     2.9504646615     -2.6356264357
C     0.6734054344     2.0089341226     -3.4144740224
C     0.0275349409     0.829481917     -3.8772117352
C     -1.9913832665     1.5540300885     -2.6261425551
C     -1.3721497577     0.7075467636     -3.6521434784


