56

 C     1.6082756044     -0.1902112187     4.2642119627
C     0.7743399268     -1.292851989     4.316289718
C     1.1487396123     -2.2840986642     3.3164620231
C     2.518655706     -0.3987346682     3.1572395202
C     2.2042555327     -1.6991727525     2.5464956702
C     2.338909268     0.6903031373     2.2920219038
C     0.7564996073     0.9634890517     3.9555668277
C     1.2420331719     1.5680691009     2.7949859526
C     -0.6232279826     -0.9237809061     4.1317004083
C     -0.6512343002     0.5215231376     3.9718554459
C     -0.0551192814     -2.6408312372     2.6469599759
C     -1.1663370016     -1.7551539464     3.1289820344
C     0.0015345415     -2.9515920371     1.301316362
C     2.2097516846     -1.8420721427     1.1150057034
C     1.1996439975     -2.6646215343     0.5526264091
C     2.5197948261     0.5861738947     0.8889273796
C     2.6180844829     -0.7175388691     0.2726182709
C     2.0738310093     1.7018628716     0.0847247209
C     0.3648640191     2.1961595837     1.8282839493
C     0.8389322124     2.4094943594     0.4854744193
C     -1.4851347077     1.0263416708     3.0025560811
C     -1.0326168145     2.0421753677     2.0415792679
C     -2.1052364168     -1.24412136     2.1670248681
C     -2.3794407009     0.1544473399     2.2514752118
C     -1.1155287835     -2.70819287     0.4020980395
C     -2.2025778388     -1.86273383     0.8228545635
C     0.8199446193     -2.5498398091     -0.8390747952
C     -0.6248893047     -2.6652113269     -0.9337985479
C     2.4961297765     -0.8056679246     -1.164039689
C     1.5602605264     -1.7889015435     -1.7474880808
C     2.4384645268     1.6606194453     -1.2562357862
C     2.7295566236     0.380744458     -1.9020804332
C     1.725379902     2.4411392385     -2.2265361431
C     -0.0907243016     2.7543946605     -0.5722780753
C     0.3860807244     2.823898209     -1.9207328468
C     -1.9177545289     2.034768333     0.9272673579
C     -2.8061579148     0.8771131006     1.0966857253
C     -1.5138180911     2.4615745697     -0.3628617296
C     -2.8791158652     -1.1772496828     -0.2134603279
C     -3.2724626032     0.2215051695     -0.0300321732
C     -1.3229971138     -2.0111354866     -1.992162591
C     -2.5326333848     -1.3282444233     -1.6208253172
C     0.9077136362     -1.4746400745     -3.0059876419
C     -0.5541277257     -1.5136727192     -3.0800448309
C     2.3184365558     0.5076100003     -3.2789651448
C     1.8226823314     1.8307222189     -3.5135082823
C     1.3889030461     -0.4322065585     -3.8212814928
C     -0.4338515711     2.3609356542     -3.0502805224
C     -0.9565085899     -0.318165415     -3.8115464062
C     0.4678349177     1.6777565947     -3.9852574963
C     0.2267279821     0.3272124438     -4.2975291599
C     -2.2855347642     1.9652479765     -1.4800564313
C     -3.1712400491     0.8767958638     -1.2800454236
C     -2.8369485231     -0.1069258976     -2.2856226898
C     -1.6850338483     1.82198013     -2.8073607792
C     -2.0060083635     0.4635113155     -3.2841969546


