56

 C     1.285819176     -0.0306939402     3.6713910888
C     2.38503675     -0.3421934251     2.919603307
C     2.2246703881     -1.7118099602     2.3764439647
C     0.4118750516     -1.2334858873     3.6737945564
C     0.9038229056     -2.1498095923     2.6651061946
C     -0.8866285237     -0.8109343532     3.6757053689
C     0.4626651344     1.0904695782     3.3090043646
C     -0.9001134961     0.64619609     3.5250467924
C     0.7621710043     1.8647512229     2.1483514795
C     2.8297426284     0.4910842352     1.8589622709
C     2.0461892307     1.6107435275     1.4408769937
C     2.7527211324     -1.7269245376     1.0966722904
C     3.3748788283     -0.4065511286     0.8517718495
C     2.0207352508     -2.3525991736     0.0245942776
C     0.0291835953     -2.5446210693     1.5815193051
C     0.6067893777     -2.6762346492     0.2429252956
C     -1.8544737026     -1.3500632364     2.7700193312
C     -1.4205923187     -2.2452521618     1.7320206672
C     -1.971472422     0.9850793248     2.7104264009
C     -2.7489034465     -0.2517282011     2.4469745991
C     -0.3899568616     2.3988364108     1.3861868491
C     -1.7742342844     1.9507128562     1.6619006219
C     -0.1292731009     2.9309881799     0.1034585748
C     2.2173224129     2.0403989243     0.0470909784
C     1.1619145245     2.8076777066     -0.5434559985
C     3.5756135325     0.0108535344     -0.4320105202
C     3.0458008994     1.2989158197     -0.8575775016
C     2.5083790713     -2.025037296     -1.2861306296
C     3.3946638919     -0.937503589     -1.4953573079
C     1.6098264641     -2.0367972267     -2.4281795859
C     -0.2876518598     -2.5895922447     -0.9368497511
C     0.2279350899     -2.1762653504     -2.2202222932
C     -2.2486353971     -2.2568549385     0.5606924082
C     -1.6542864478     -2.3586824903     -0.7706038216
C     -3.5492500529     -0.3237441859     1.3303251543
C     -3.3910330076     -1.4447914977     0.4557315013
C     -2.7499170812     1.9199159555     0.6037171038
C     -3.6667492887     0.8480151543     0.4852956324
C     -1.1588492703     2.9324610596     -0.9476952161
C     -2.3773624453     2.3175377148     -0.7485621207
C     0.9366077246     2.7373978369     -1.9483709392
C     -0.5055144675     2.7030112536     -2.1766335382
C     2.7064904198     1.1523420389     -2.2729055101
C     2.9180193577     -0.2049491344     -2.6506962069
C     1.886081982     -0.9358135675     -3.2940111836
C     1.5665319425     1.8176878708     -2.7883925261
C     -0.4459305618     -1.1667063351     -3.0219437128
C     -0.8093099679     1.6059954622     -2.9984475733
C     0.6175272472     -0.3135422031     -3.5839989181
C     0.4764600814     1.0568217948     -3.4560193501
C     -2.4019739759     -1.4958138542     -1.6802232262
C     -3.4624699182     -0.9494184865     -0.926104645
C     -3.6722721923     0.4310032639     -0.9018038897
C     -2.8363074275     1.3074310158     -1.6812525552
C     -1.7117418595     -0.6843269642     -2.6490958344
C     -1.9405717274     0.7764128283     -2.659064867


