56

 C     1.2885945127     0.0636196718     3.9097068222
C     2.463983221     -0.1177049795     3.1714388324
C     2.4591651834     -1.4792076415     2.6466254595
C     0.442736257     -1.1701747481     3.7540300381
C     1.1770294316     -2.0686396235     2.957239186
C     -0.8583159236     -0.7474830494     3.3630123583
C     0.4832969299     1.1820169525     3.7363423698
C     -0.8721108996     0.6821732883     3.46250387
C     0.7747849621     2.1359901282     2.717036398
C     2.7467302774     0.7748909161     2.0860370405
C     1.9255496133     1.9517380386     1.86689897
C     2.8650037306     -1.4379600299     1.3060900757
C     3.118538768     -0.0464219343     0.9522121685
C     2.2992429438     -2.3414681908     0.3173968272
C     0.479661042     -2.783634675     1.9407394808
C     1.1087560313     -3.0783146961     0.690928121
C     -1.5663544794     -1.381020345     2.2611004091
C     -0.9227423528     -2.5168498753     1.6881188925
C     -2.4420191929     -0.5697414474     1.4099703108
C     -1.4775697025     1.47556237     2.4891329217
C     -0.4952546299     2.4612247066     2.0757141409
C     -2.3981713465     0.8983723264     1.5331423316
C     -0.5770370164     3.0272104755     0.7882480212
C     1.8131158388     2.4189308089     0.5167425232
C     0.6347863812     3.0861708797     0.0296570669
C     2.943458087     0.3923801182     -0.3897495605
C     2.3669841787     1.6919119109     -0.5962130808
C     2.4383917302     -1.9771069196     -1.0406279487
C     2.7354596195     -0.5859444781     -1.4043956894
C     1.5378239482     -2.4863327739     -2.0260964457
C     0.0595483788     -3.3202250314     -0.2904660992
C     -1.1877704511     -2.9164467624     0.3258757063
C     0.2744657889     -3.0487489006     -1.6366111977
C     -2.8125019724     -1.0921453549     0.1330876429
C     -2.1633089471     -2.2649507303     -0.4125326912
C     -3.1889820653     -0.2387650932     -0.9732627865
C     -2.7045041914     1.707051728     0.4301414709
C     -1.8208454921     2.8422201207     0.0760447565
C     -3.2163016371     1.1520220658     -0.8042649668
C     -1.8550650455     2.9982938081     -1.3102008693
C     -2.7608760632     1.9863086062     -1.8769491983
C     0.5890494531     2.9487370427     -1.4155550866
C     1.6129624805     2.0055331193     -1.7940348478
C     -0.6391538278     2.971946855     -2.0776603734
C     1.9886349506     -0.271594365     -2.5923449221
C     1.2816688333     -1.4627579334     -2.9666071505
C     1.359539921     1.0006203062     -2.7732648505
C     -0.7770952837     -2.4150489353     -2.4430021582
C     -1.983513188     -2.0569466004     -1.843948105
C     -2.6436069697     -0.8144788267     -2.2039804531
C     -0.1192680661     -1.4469187535     -3.3209928756
C     -2.1962382666     1.4443040123     -3.0191847716
C     -0.8526238301     2.0300510653     -3.166348563
C     0.0603268615     1.0215318579     -3.4543853988
C     -2.0831934144     0.0270664526     -3.1844009609
C     -0.7148651099     -0.2408469068     -3.6181331412


