56

 C     1.400000492     0.0806676044     4.1069531144
C     0.6130471573     -1.1166701284     4.1747240598
C     1.2963009484     -2.1169316816     3.4327551306
C     2.5193767318     -0.1305242762     3.190632512
C     2.4454136374     -1.4561023485     2.7713751287
C     2.4875191932     0.8852219279     2.1686574063
C     0.6093235762     1.0838178004     3.5112811558
C     1.3050962381     1.6871854356     2.4038499558
C     -0.7482221618     -0.786156528     3.7779272559
C     -0.7416540877     0.6293336982     3.3079999497
C     -1.466262569     -1.7066006252     3.0443914262
C     0.6235843156     -2.8797112631     2.4553890086
C     -0.7861567912     -2.8601003846     2.4429057852
C     2.4164441406     -1.7918272917     1.3776888952
C     1.3161076255     -2.6941948094     1.1556064943
C     2.7831233686     0.5778791029     0.8185721398
C     2.7051822846     -0.8136365416     0.3960451467
C     2.4753209948     1.6131689297     -0.1423121388
C     0.5831965355     2.2451015913     1.329387024
C     1.3566346633     2.5060832682     0.1263230879
C     -1.4680116015     1.0618954548     2.1823290866
C     -0.8468610275     2.0346753492     1.2447376979
C     -2.4721601412     -1.2341860092     2.0799193046
C     -2.5085618396     0.1574507389     1.6614047388
C     -1.4306493627     -3.0710572004     1.2053394646
C     -2.6198020239     -2.2331338927     1.1032159188
C     0.6149353719     -2.7100641031     -0.0995505808
C     -0.7864494576     -3.0283464141     -0.0539908372
C     2.2561534954     -1.0620229319     -0.9642335633
C     1.1174317573     -1.9219360839     -1.2099410728
C     2.7811494096     1.3100861509     -1.4910824695
C     2.5889272773     -0.0646537874     -1.9030608063
C     2.3124660735     2.1438193217     -2.5692351473
C     0.687381185     3.0851054264     -0.978522571
C     1.2433627542     2.9931130088     -2.296981422
C     -1.5006616953     2.3410067118     -0.0143578246
C     -0.7411781118     2.9337520854     -1.0816677204
C     -3.0661609842     0.4243871924     0.3977008027
C     -2.6672533055     1.5892840573     -0.3901710479
C     -2.85715975     -1.9270072913     -0.2508301735
C     -1.7032766071     -2.4116794499     -1.0110723116
C     -3.3476596069     -0.6583688945     -0.5471379605
C     0.2162552138     -1.583467617     -2.3433109265
C     -1.2376606795     -1.7183979545     -2.1431864508
C     1.9323405485     -0.0247770667     -3.1844116723
C     1.8966877065     1.2929709882     -3.6829833779
C     0.6509020741     -0.6671477927     -3.3196714526
C     0.1416666066     2.7160927736     -3.2478257584
C     -1.0614050459     2.6972832918     -2.5116944891
C     0.5374753384     1.5960610547     -4.0267618327
C     -0.2431334485     0.373086197     -3.9054205206
C     -2.8633487472     1.2818672395     -1.7575672679
C     -3.1078696614     -0.1534282224     -1.8398205201
C     -2.0968658483     -0.6696004842     -2.6675172626
C     -2.009634968     1.6951716314     -2.8024572655
C     -1.5347472215     0.4561630413     -3.4303352067


