56

 C     1.5225708438     -0.0977035348     4.12436749
C     0.7374914843     -1.3131166609     4.0610365035
C     1.5335276674     -2.3089858584     3.4395561017
C     2.6305135684     -0.2816111064     3.1934113524
C     2.7089321671     -1.6127390432     2.814785379
C     2.562185926     0.7417514856     2.1511831835
C     0.7477152444     0.9335543259     3.5822601772
C     1.4546270741     1.5781027248     2.4924814649
C     -0.5513239261     -1.0028038581     3.4732399798
C     -0.5695550163     0.4332252413     3.2392019353
C     -1.140219161     -1.8302037434     2.4640346229
C     0.9767612974     -3.1130189972     2.462643292
C     -0.3734397219     -2.9813330633     2.0299906274
C     2.736749641     -1.9647405227     1.4212540715
C     1.8199874933     -3.0392711976     1.2397274937
C     2.7575696774     0.4357349613     0.7682982586
C     2.8040212299     -0.9691439287     0.3740609771
C     2.3001326007     1.4471393577     -0.1825874332
C     0.7366070077     2.3022055536     1.528172201
C     1.3628101754     2.492097897     0.2485778496
C     -1.3032197222     1.0441175328     2.2008730439
C     -0.7245598419     2.2472299553     1.5917262534
C     -2.0691513888     -1.2039740955     1.5000327766
C     -2.2102873045     0.2478079476     1.3986275194
C     -2.3626373898     -1.9434654286     0.3182388768
C     -0.3533718006     -3.2738968652     0.6069790152
C     1.0171680568     -3.1655550187     0.106344008
C     -1.384713645     -2.8836566468     -0.1906185625
C     2.2568989261     -1.316959672     -0.9271022152
C     1.2769072712     -2.3888892114     -1.0700876071
C     2.2825105873     1.1072706513     -1.5490771562
C     2.2410541251     -0.2913406195     -1.9175845838
C     1.5173189866     1.8623515336     -2.5555313688
C     0.6403671947     3.2476340971     -0.7208997486
C     0.728007408     2.9467911856     -2.1773797452
C     -1.4165240457     2.8818394339     0.5677261639
C     -0.6881772698     3.5938780437     -0.4377141878
C     -2.7995495873     0.8639784877     0.1927019876
C     -2.5065913965     2.2039062672     -0.1264161186
C     -2.9288400726     -1.3326519494     -0.8359937838
C     -3.1500987009     0.0229970858     -0.9452455924
C     -1.1484129736     -2.5800746089     -1.6055075449
C     0.2001670933     -2.2553223106     -2.0507262633
C     -2.2188144038     -1.8062335527     -2.044619015
C     1.4105394678     -0.3901626569     -3.0603396434
C     0.987860028     0.9194727286     -3.4847490991
C     0.2998847302     -1.281269041     -3.0827346937
C     -2.8060527703     0.4223151271     -2.3448850816
C     -2.0835956208     -0.7127580515     -2.9385069049
C     -0.4077408966     0.8822028974     -3.7912921961
C     -0.8496892956     -0.4939991983     -3.5524548049
C     -0.5818112942     3.0875884255     -2.7527752235
C     -1.4438197639     3.5297946512     -1.6854411772
C     -2.5145644781     2.6721424177     -1.5248362115
C     -1.2139242682     1.9768731737     -3.4060303305
C     -2.4502011971     1.7108772516     -2.6303962829


