56

 C     1.4644106908     -0.228169715     4.6325787836
C     0.5941011665     -1.3063961143     4.4647414006
C     1.0879151654     -2.1430562031     3.4098987594
C     2.5477138179     -0.3964395884     3.6450349938
C     2.2822827804     -1.5803327777     2.823398303
C     2.764765517     0.8309469306     3.0102460946
C     0.7453787576     0.9491599583     4.1937385365
C     1.5696676788     1.695195768     3.3488569891
C     -0.681637479     -0.8240667738     3.9346755077
C     -0.5945558917     0.5566762035     3.6732561926
C     0.02015597     -2.5277351189     2.5448649772
C     -1.1239219126     -1.6917454848     2.8769850896
C     0.2674016708     -2.83372682     1.1912840061
C     2.3949004084     -1.5362813936     1.390432581
C     1.4765526725     -2.3428117245     0.5411483667
C     2.9106494388     0.8886037213     1.6248068823
C     2.8999872484     -0.3037925496     0.7951223397
C     1.0865298614     2.2173810152     2.1460074421
C     2.1004961638     2.0076003509     1.1308348084
C     -1.1063203992     1.0875135491     2.417781608
C     -0.3017606518     2.0734931839     1.7127692966
C     -1.9304168598     -1.1927947695     1.8427029494
C     -1.9719156197     0.2533188004     1.5895789666
C     -0.929663992     -2.9444441532     0.4308477628
C     -2.029345443     -2.0655940174     0.7315387752
C     -0.8965034937     -3.0492955222     -0.973565173
C     1.404232699     -2.1306174782     -0.8993467758
C     0.2511904814     -2.568691776     -1.6723185326
C     2.7075883618     -0.0623222069     -0.5806630862
C     2.1030846776     -1.0248923338     -1.4859987632
C     1.8228035121     2.174864624     -0.202357413
C     2.4176565196     1.2356896711     -1.1106543181
C     -0.5913703948     2.4109226346     0.3631199179
C     0.5163531538     2.7197441931     -0.5634787203
C     -2.3821525326     0.697742162     0.2774883995
C     -1.8301522724     1.9367211438     -0.2422260321
C     -2.6389772295     -1.6679625292     -0.5030586191
C     -2.0652944976     -2.4577346033     -1.5477130109
C     -2.9070902194     -0.2768193636     -0.7232775725
C     -0.2096477433     -1.879588233     -2.8627493964
C     -1.686979342     -1.8321249013     -2.7644317257
C     1.6651994485     -0.3565980968     -2.6698822436
C     1.8772836938     1.070881609     -2.4186710637
C     0.4823659215     -0.7540785052     -3.3882704016
C     0.2657015859     2.8668002987     -1.9220766538
C     0.9874111793     2.0205785338     -2.9058345658
C     -2.1214070012     2.3347853968     -1.5833183152
C     -1.0780597625     2.9124527189     -2.4008486115
C     -3.0283388737     0.1065600821     -2.089144383
C     -2.3817872902     -0.7035097656     -3.1499380513
C     -2.8311131422     1.4653185795     -2.4727260594
C     -0.2872239242     0.267446593     -4.089738958
C     0.0420383461     1.6654058892     -3.925066884
C     -1.1700499414     2.4492335418     -3.7649106436
C     -1.7287234874     0.2327552444     -4.0243141543
C     -2.2514091726     1.5538301416     -3.8071596323


