56

 C     1.1746733293     -0.180866074     4.1322903697
C     2.291640755     -0.4039275795     3.3558607164
C     2.0811980429     -1.6788096437     2.6276791046
C     0.3056530008     -1.3661404479     4.0457396436
C     0.7861884494     -2.1894288156     2.9432515937
C     -0.9989935419     -0.8994889309     4.0449943519
C     0.3462114006     1.004963916     3.9022825911
C     -1.0054656632     0.5843616826     3.9282695349
C     0.7535183238     1.9201264779     2.8987323095
C     2.7597887435     0.5565315893     2.412238824
C     2.0164749573     1.7510915367     2.2300461575
C     2.537736674     -1.5296922749     1.3249964481
C     3.1362492933     -0.1845747035     1.2162592302
C     1.7864019028     -2.0470003753     0.2121764155
C     -0.0850561912     -2.5363379773     1.8378797779
C     0.4413843332     -2.5247847419     0.4567051236
C     -1.9039561028     -1.3992235015     3.0989478342
C     -1.4822889818     -2.2125302107     2.0167514522
C     -1.9118190915     0.9308295768     2.8770232209
C     -2.6307349061     -0.2566643636     2.5306971854
C     -0.2008642271     2.3704038406     1.874892413
C     -1.5105479433     1.832479474     1.7923892256
C     1.8886538847     2.3037426633     0.8850706277
C     0.5259138337     2.7063993458     0.6687201699
C     3.1645016893     0.4308095308     -0.0039865282
C     2.6062343532     1.7635728394     -0.1750844446
C     2.1547648769     -1.5593769764     -1.1127078182
C     2.8744120348     -0.3107501711     -1.2127956969
C     1.340009693     -1.9200077643     -2.2181115581
C     -0.4958476811     -2.5249724986     -0.6911218428
C     -0.0209830187     -2.3809267819     -2.0014712878
C     -2.2533498673     -1.7761831464     0.8638669493
C     -2.9237483386     -0.5231996849     1.2069925345
C     -1.8742780718     -2.0683306836     -0.4515820267
C     -2.1050300196     1.6882140492     0.4600918712
C     -2.9247885257     0.5001107132     0.2240249563
C     -0.0604985766     2.6627718827     -0.6203203069
C     -1.4723229179     2.2894226372     -0.7049901608
C     2.1005014376     1.8482492151     -1.5102117718
C     2.5180562112     0.6277926429     -2.2235906482
C     0.820422146     2.4012825884     -1.7760542248
C     1.3360744026     -1.1375999768     -3.3991146823
C     1.8354319213     0.2085813759     -3.3674741886
C     -0.848106054     -1.8565450914     -3.1210780457
C     0.0189192941     -1.1503903683     -4.0149732877
C     -2.5492167887     -1.3199930849     -1.4541483737
C     -3.0888579657     0.0010301149     -1.081974457
C     -2.1138609483     -1.2860700869     -2.8251602638
C     -1.9869665624     1.9651810444     -2.011259816
C     -2.8421914304     0.8226880365     -2.1708589597
C     -2.428271344     0.0290603343     -3.3357106256
C     0.2292501268     2.0584057412     -3.058893384
C     0.8067724019     1.0306309212     -3.9039686613
C     -0.2653311449     0.1834898239     -4.4202127647
C     -1.1701735328     1.9775713424     -3.1790840191
C     -1.4834880656     0.7740210292     -4.0229307975


