56

 C     1.3479793244     0.1378724008     3.8644769484
C     2.4847030517     -0.0432917819     3.0464122792
C     2.446898418     -1.3983177695     2.4930919092
C     0.4863257478     -1.0575224142     3.6773554136
C     1.1487951905     -1.932511063     2.7669439237
C     -0.8231693688     -0.5965846437     3.4212351641
C     0.5488078013     1.2712192396     3.738332695
C     -0.8381014391     0.8405078462     3.609072599
C     0.8294449115     2.2410474325     2.7151311772
C     2.7985239047     0.8728112268     2.0205630936
C     1.990705546     2.0610921042     1.8757156417
C     2.8854193365     -1.3180569888     1.1577131762
C     3.1202056391     0.0713874557     0.8146899283
C     2.311750706     -2.1539595676     0.2009656824
C     0.4009655664     -2.6099404372     1.7227348784
C     1.1197068475     -2.9236290558     0.5359601229
C     -1.6154472563     -1.2113851516     2.3694217031
C     -1.0416492335     -2.3478373445     1.6092566852
C     -2.5435376507     -0.3683312661     1.7117351014
C     -1.4304539325     1.6467306779     2.6264826468
C     -0.4395736092     2.5752791213     2.0830450785
C     -2.3689473801     1.0810080534     1.7503365517
C     -0.5316255931     3.0394879709     0.7491245206
C     1.9047314733     2.6003882566     0.571413719
C     0.7324774566     3.281052488     0.101967848
C     2.8886544356     0.5317474904     -0.4937203667
C     2.502016806     1.9199877908     -0.5947970595
C     2.2029966904     -1.7522699004     -1.1668755523
C     2.4321239604     -0.3976089199     -1.5552334151
C     0.4534644712     -3.2388828335     -0.6949789139
C     1.1602026454     -2.5619056438     -1.7776454981
C     -1.6828545428     -2.7300928983     0.406195068
C     -0.945741091     -3.3007511783     -0.7141737571
C     -3.0668635677     -0.6899699847     0.415560053
C     -2.7726975589     -1.9283598748     -0.1628748816
C     -2.5399246989     1.5816117568     0.4333625018
C     -1.673329109     2.597694771     -0.1000176659
C     -3.0523227678     0.4981233828     -0.3978235153
C     -1.5294051166     2.5903284128     -1.5167541783
C     0.8118282429     3.3007762008     -1.3229250153
C     1.9111289925     2.4170626324     -1.7538436766
C     -0.2807429555     3.0120719144     -2.0964517419
C     1.6560298832     0.1149097684     -2.6932342422
C     1.4086650251     1.5445473041     -2.7676335693
C     0.1120759607     2.0462627769     -3.1366694489
C     0.468657445     -2.0897590307     -2.8889466963
C     0.6759078389     -0.7237828392     -3.3046564758
C     -1.6211313865     -2.9307009267     -1.9232428808
C     -2.7375215114     -2.0299343732     -1.5749024651
C     -0.9471641618     -2.3902564146     -3.0002387204
C     -2.7954884022     0.428836616     -1.8021473158
C     -2.0116799991     1.4887625016     -2.3366201405
C     -0.9540947185     1.1723634144     -3.3011409049
C     -0.6672229074     -0.1899504922     -3.621823274
C     -2.6967869575     -0.893058342     -2.411502479
C     -1.6337164231     -1.1563198612     -3.3774222493


