56

 C     1.5268509318     -0.0571675005     4.2813068393
C     0.7120142235     -1.2676361112     4.1957163373
C     1.4688548915     -2.2321757188     3.4969103869
C     2.6145550748     -0.2095289524     3.3125357594
C     2.6672517294     -1.5241038541     2.9002167394
C     2.4979308255     0.8423370514     2.2986441838
C     0.754979876     1.0069160049     3.8423263083
C     1.3753999868     1.6508944895     2.6802191153
C     -0.596374171     -0.9183352205     3.693805698
C     -0.6101285781     0.539156807     3.6422216993
C     -1.1949921296     -1.6243050032     2.5739582078
C     0.8907776528     -2.9488044794     2.4647321709
C     -0.4397883714     -2.6992355394     1.9949958073
C     2.7350685947     -1.8450825538     1.5032092578
C     1.7625077785     -2.8557469492     1.2761274847
C     2.7067332197     0.5752301853     0.9143247335
C     2.8514667749     -0.8221141134     0.4989784713
C     2.1666998887     1.5482668617     -0.039327025
C     0.5807851502     2.3351411772     1.718043586
C     1.0862554832     2.4559214408     0.3599012222
C     -1.3819675221     1.201825545     2.7267032199
C     -0.8366586909     2.2932360611     1.9073752607
C     -2.1077641672     -0.9055473213     1.6700886321
C     -2.3091146973     0.4907955935     1.8865712825
C     -2.3292251117     -1.3634414854     0.2966472795
C     -0.4019117099     -2.8283723005     0.5427482154
C     0.9833276549     -2.8978641692     0.1196044167
C     -1.3494296827     -2.257776854     -0.3161818441
C     2.4094640067     -1.1654043846     -0.8334550094
C     1.3953226835     -2.1892321277     -1.0366649655
C     2.2965961748     1.2571631095     -1.4085373343
C     2.4655022588     -0.1408118764     -1.8130786003
C     1.5223636507     1.9145063504     -2.4385489203
C     0.2016241295     2.9300508339     -0.6508468931
C     0.4136253607     2.6849565619     -2.0618690432
C     -1.708396677     2.4840502406     0.8060309564
C     -2.6841624453     1.3873434883     0.822300868
C     -1.2247815618     2.927326898     -0.4238966387
C     -3.0640881836     -0.5302843838     -0.5984949345
C     -3.1782812898     0.9097423561     -0.3590891476
C     -2.9409440887     -0.7010323469     -1.9861288939
C     -0.9919744811     -2.1396585579     -1.7434851235
C     0.4324378153     -2.0717114528     -2.110178882
C     -1.9371505021     -1.5008465217     -2.5980068458
C     1.8618937468     -0.3247821233     -3.0574775169
C     1.3622025325     0.9801979676     -3.5284027655
C     0.8229111853     -1.2873244322     -3.2425991284
C     -1.4983909885     -0.7559181756     -3.7679638837
C     0.1603903623     0.8123448481     -4.1737933126
C     -0.1706855074     -0.6434718034     -4.0688593085
C     -0.8814876929     2.5075817258     -2.7260317629
C     -1.8858088269     2.5647591394     -1.6703152826
C     -2.9212374684     1.6084069252     -1.6223970054
C     -2.9778648116     0.6203948976     -2.6554599998
C     -1.0112263599     1.5681355152     -3.7836280464
C     -2.091937927     0.6110542377     -3.711546026


