56

 C     1.4508988427     0.1192519785     3.9838569211
C     0.6897244526     -1.0635935201     3.7532775254
C     1.3458558733     -1.7937503964     2.7261976625
C     2.5815702749     0.1621676837     3.0647371528
C     2.5398458662     -1.0248350728     2.2883769887
C     2.6081327046     1.4402135413     2.4355064428
C     0.663095369     1.2555736232     3.7856142879
C     1.3878229301     2.1625415815     2.9169747051
C     -0.6732570243     -0.6421158813     3.5030943315
C     -0.6916917193     0.821221456     3.4363936846
C     -1.4272116228     -1.3413364202     2.5883154666
C     0.5852687035     -2.5416568342     1.7660137679
C     -0.8364178129     -2.4331094292     1.8063276879
C     1.1718183768     -2.7605350213     0.4746285385
C     2.8603124442     -0.9723859397     0.8952809294
C     2.2711271428     -1.9621126908     0.0404702048
C     2.9287067788     1.5131977742     1.0779923996
C     3.1412644047     0.3088563074     0.3131084034
C     2.2690483106     2.4737530121     0.1996936366
C     0.6615100425     2.9146748424     2.0354661826
C     1.1889206961     3.2219212072     0.6893451381
C     -1.4220584787     1.4945074787     2.428179514
C     -0.795344884     2.6863381658     1.8796731105
C     -2.3654073906     -0.6715166724     1.728385562
C     -2.342874822     0.7321655359     1.5479511257
C     -1.6252030568     -2.6174883872     0.6257826699
C     -2.6237238365     -1.56944908     0.618495604
C     0.3693839998     -3.091971922     -0.6858701791
C     -1.0532122938     -3.0472282114     -0.6213108553
C     2.1321104974     -1.7629186703     -1.3905263826
C     1.0712721663     -2.6131635657     -1.864203091
C     2.7583035235     0.5768814539     -1.0570423406
C     2.1783813279     1.8978069596     -1.1180364278
C     2.3191885728     -0.4527044036     -1.9310050415
C     1.0520693019     2.1707645215     -1.9866256186
C     0.0790021446     3.4753827633     -0.1506894789
C     -1.1219726937     3.0954629791     0.5939458569
C     -0.0417608464     2.9347089142     -1.4335574974
C     -2.6923821969     1.2375475086     0.197363401
C     -2.0102052761     2.3991506483     -0.2759126591
C     -1.4116126575     2.410626583     -1.5859592673
C     -3.1665861988     -1.0892484081     -0.5670530946
C     -3.1296998319     0.3437240335     -0.812148784
C     -1.7784193712     -2.7079154984     -1.8457229914
C     -2.8914198017     -1.7732065369     -1.7765531583
C     0.3404983166     -2.2582820605     -3.0112422681
C     -1.0796261102     -2.4333561271     -3.0372423072
C     1.4573423944     -0.0625891029     -3.0337500465
C     0.7232510941     1.2178555381     -2.9686758595
C     0.6201314321     -0.988790406     -3.633518007
C     -1.7277226633     1.4449583719     -2.566243031
C     -2.7654734749     0.5029753857     -2.215829439
C     -2.7750444194     -0.803050239     -2.8234079246
C     -1.6908969076     -1.2079898281     -3.6369960916
C     -0.6350583235     0.9960052003     -3.4225434337
C     -0.6715742599     -0.3239347536     -3.9487836465


