56

 C     1.5411673128     -0.1863118322     4.2630907476
C     0.7348596712     -1.2902815759     4.1806363013
C     1.2472008774     -2.2741038194     3.2324494954
C     2.5826095714     -0.3717407075     3.2425865031
C     2.3618453603     -1.6864033353     2.5745816087
C     2.5337894959     0.7346391613     2.4150753506
C     0.7207657233     0.9649149349     3.8761370896
C     1.3829284764     1.6115827639     2.8453379566
C     -0.618195172     -0.9210153077     3.751071475
C     -0.6376042334     0.5038370939     3.5415534388
C     0.1296095898     -2.7271072476     2.4697191104
C     -1.015839179     -1.8253048795     2.7411712611
C     0.3404034854     -3.0828233424     1.1577537171
C     2.4830548959     -1.8120566083     1.1449614631
C     1.5894803921     -2.7302985848     0.5072701089
C     2.857759442     0.6657199094     1.0041573356
C     2.9057980806     -0.6464705002     0.3432752382
C     2.5338582421     1.8035976188     0.2607482838
C     0.6768656878     2.3533275082     1.8618615558
C     1.4574677497     2.7320992143     0.7357304027
C     -1.3179689016     1.0065048156     2.4113623562
C     -0.7509751393     2.1525615514     1.6848578796
C     -1.8330955261     -1.3759361989     1.6679347974
C     -2.1334256287     0.0521163234     1.6340643301
C     -0.7173462276     -2.9709562881     0.1780541224
C     -1.8441695255     -2.124926597     0.4065098108
C     1.3112572123     -2.6723226284     -0.8998782813
C     -0.1034518534     -2.9740049207     -1.1195921893
C     2.7002069434     -0.6651158222     -1.058964223
C     1.9293805956     -1.7162024129     -1.6982356141
C     2.4457814167     1.7755063154     -1.1797606339
C     2.4780894601     0.5364403716     -1.8311538897
C     0.8454555612     3.2617254926     -0.3835935459
C     1.4662973838     2.7265880841     -1.5829892261
C     -1.3724146803     2.5983834802     0.4574684131
C     -0.5754323996     3.2170054157     -0.5658840886
C     -2.7949408344     0.5281825083     0.501344909
C     -2.5426014079     1.8957067571     -0.0036181058
C     -2.5622699794     -1.6043504099     -0.7525137515
C     -3.1994908816     -0.3210106519     -0.5873879233
C     -0.7701898701     -2.4821109732     -2.2195995965
C     -2.1129672463     -1.9493421411     -2.0808693153
C     1.2179628891     -1.1571364472     -2.8275794287
C     1.5262675143     0.265868078     -2.8951451824
C     -0.0515264557     -1.6412877032     -3.1855333523
C     0.4667803587     2.4528702966     -2.533270562
C     -0.8077853264     2.9426959353     -1.9708300636
C     0.5108085971     1.2078587938     -3.2659320014
C     -2.9091948471     1.9045226148     -1.344297374
C     -3.3768694743     0.5471314921     -1.7111596155
C     -1.9982405539     2.3365735917     -2.3693228219
C     -2.2833615277     -1.0226468069     -3.1669477297
C     -0.9957385328     -0.7566382438     -3.7527827454
C     -0.7651690585     0.681462218     -3.7525000111
C     -2.9146715936     0.2245199991     -2.9738053092
C     -1.9728159201     1.3039636472     -3.3776184904


