56

 C     1.5818677317     0.131955905     3.8339163889
C     0.7979682576     -1.0108943694     3.7819074831
C     1.3296140778     -1.9204999775     2.7657255885
C     2.5479114943     0.0697421492     2.7697608723
C     2.4130347677     -1.2026815642     2.1098590235
C     2.472190047     1.2538309329     1.9904230191
C     0.727261545     1.2844050088     3.5433221218
C     1.358603004     2.0597917571     2.5319976924
C     -0.5955563547     -0.5860783426     3.650156923
C     -0.6184846445     0.8686188352     3.3881961328
C     -1.4613893468     -1.3866558375     2.9774438556
C     0.44248855     -2.7263132862     2.021249109
C     -0.9874499951     -2.6200401471     2.316990073
C     0.7885291688     -3.0009298538     0.6523041729
C     2.6013229038     -1.280689197     0.7071629748
C     1.8657276306     -2.30402833     0.0264743739
C     2.7256167673     1.2389756039     0.5854566858
C     2.929818682     -0.0577474175     -0.0430374789
C     2.1707073543     2.3455099213     -0.2182164519
C     0.5487408027     2.730610998     1.6345592179
C     1.0355692545     3.0313688564     0.3085889398
C     -1.4235915874     1.3879492837     2.3039369595
C     -0.8585468897     2.4412215592     1.546594361
C     -2.5326197014     -0.8136587096     2.1341629009
C     -2.4187349619     0.5178732321     1.6362690015
C     -1.9245171436     -2.9290446661     1.3415930582
C     -2.9541050122     -1.8700206998     1.2964044713
C     -0.2280209522     -3.2636474711     -0.3694216236
C     -1.589661639     -3.2772719159     -0.0202734452
C     1.5498956161     -2.1948640405     -1.3893431502
C     0.1989124269     -2.6792190288     -1.6138794876
C     2.8364164404     -0.1186961469     -1.4682664239
C     2.0611986933     -1.1760650053     -2.1334179726
C     2.2599425392     2.27363926     -1.6547200768
C     2.6644583117     1.0336527149     -2.2362705316
C     1.2344223551     2.8074051159     -2.4942732892
C     -0.1134385167     3.2647017143     -0.5251123241
C     -1.2527698661     2.7145070044     0.1726414455
C     -0.0088616038     3.1901222725     -1.9312461821
C     -2.7865299     0.7667588905     0.223945533
C     -2.1901235927     1.8928898959     -0.5022578712
C     -3.279485614     -1.6418139531     -0.027165808
C     -2.4851903419     -2.5652860502     -0.8776752164
C     -3.2226521783     -0.3462079947     -0.5728203924
C     -0.6796737084     -1.9328040203     -2.454721254
C     -2.0518086622     -1.8601816833     -2.0005724196
C     -2.6770382584     -0.526834636     -1.925297824
C     1.2751443693     -0.572911089     -3.2196418276
C     1.791953458     0.735219893     -3.3951480514
C     0.954296377     1.8353652036     -3.5788110507
C     -0.141633121     -0.8245674307     -3.2682274935
C     -1.0650385615     2.526688352     -2.6439051915
C     -2.049854953     1.8206775893     -1.9530571044
C     -2.1478345123     0.5093543261     -2.6091347026
C     -0.4338613702     1.6243576543     -3.6367843497
C     -0.9851396272     0.3324589349     -3.4883433745


