56

 C     1.4716381187     -0.2315966659     4.1466827931
C     0.6794235842     -1.3536928606     4.1376604687
C     1.1559763684     -2.2760581552     3.0876020761
C     2.4728519946     -0.3541077687     3.1158157666
C     2.2042353777     -1.6311662016     2.373167952
C     2.4506011528     0.8192739084     2.3774610836
C     0.6423937988     0.9506954514     3.8384262314
C     1.3264060748     1.6855866522     2.8549373157
C     -0.6733709251     -0.9720735169     3.8144906924
C     -0.6719334253     0.5018905306     3.5281573542
C     0.0267529165     -2.6828373507     2.3564571666
C     -1.1067543209     -1.8096617189     2.7980699451
C     0.1332930381     -2.9804610913     0.9927386171
C     2.2285028492     -1.6531183123     0.9425978618
C     1.281710368     -2.5069982749     0.2343494132
C     2.7883875949     0.8157661961     0.9812857737
C     2.7504270397     -0.4597067885     0.2404061933
C     2.5323939331     2.0103005641     0.3120858387
C     0.6182135693     2.4266162288     1.9015235495
C     1.4273887789     2.8804907263     0.8017068292
C     -1.3641596919     1.0161150769     2.3862301319
C     -0.7892840181     2.1440903973     1.6621216894
C     -2.0596903024     -1.3528011334     1.8251316799
C     -2.2600488049     0.0983082578     1.6481772135
C     -1.1352297511     -3.095805456     0.3234787154
C     -2.2572542148     -2.2130724812     0.747553414
C     -1.2018558501     -3.2534903659     -1.0369097305
C     1.1345792592     -2.3991527539     -1.2249410231
C     -0.0631154656     -2.8946912038     -1.8655431944
C     2.6051639045     -0.3707248617     -1.1492347132
C     1.817763256     -1.3434799342     -1.88733344
C     2.5274922984     2.1006292616     -1.1285236123
C     2.5324495124     0.9055058609     -1.8535591033
C     0.860183108     3.5052965141     -0.2789675766
C     1.6035932296     3.139933485     -1.4961619872
C     -1.3562378742     2.5625107858     0.3712713222
C     -0.5615394548     3.355049287     -0.5401777992
C     -2.7941833117     0.5100284634     0.4212674165
C     -2.3625733254     1.7449939061     -0.2108835535
C     -2.9387027176     -1.7975752535     -0.4551635956
C     -2.3941170201     -2.5573331843     -1.548367344
C     -3.1765171106     -0.4308410132     -0.6269264025
C     -0.6056313751     -2.2109612259     -2.985507725
C     -2.0362717992     -1.9357945781     -2.724198604
C     1.2434565176     -0.6570396283     -3.026164685
C     1.6231267161     0.7366279095     -2.9783418363
C     -0.0330863152     -1.0277724153     -3.4900423429
C     0.6804310022     2.9350216239     -2.4975241861
C     -0.673624632     3.1537468084     -1.9412650321
C     0.6636072393     1.7304218471     -3.2791093022
C     -2.4558687831     1.5505626327     -1.6431745621
C     -2.8921179921     0.1985926573     -1.9088990212
C     -2.2807118167     -0.5386489432     -2.9488135152
C     -1.0816320563     0.0064037162     -3.5840261011
C     -1.5200599021     2.1724092346     -2.4915585883
C     -0.7368703346     1.3337951541     -3.4195359178


