56

 C     1.6099518227     -0.0117238565     3.8003017295
C     0.7813590849     -1.1765788577     3.5802997796
C     1.2640073551     -1.8574222955     2.4356424368
C     2.5843057555     0.0657067908     2.7635567693
C     2.3888144623     -1.0512464232     1.9061403466
C     2.4811948521     1.3631782307     2.1308567941
C     0.7674164278     1.1104705793     3.6768961642
C     1.294620504     2.0035221318     2.671552875
C     -0.6035648415     -0.7963635401     3.630531234
C     -0.6164794494     0.6790567415     3.6238875274
C     -1.4994392205     -1.4906651465     2.8307407765
C     0.3654411798     -2.515031194     1.549705741
C     -1.0291754655     -2.4779127489     1.8883746525
C     0.7553333936     -2.6513618607     0.1414540689
C     2.6430362106     -0.963183593     0.5083922332
C     1.9330010786     -1.8992409386     -0.360060585
C     2.8569243237     1.5276143276     0.7845788595
C     3.1535633328     0.3205198062     -0.0162008882
C     2.2310506468     2.6308444583     0.1028948057
C     0.4006238309     2.6562164904     1.7719992687
C     0.9203233763     3.0390009634     0.5112731596
C     -1.4878463043     1.3216128418     2.7480921259
C     -0.9998199943     2.3239828198     1.8111349009
C     -2.6130708339     -0.8018764228     2.1726359977
C     -2.5596685105     0.585147045     2.087985253
C     -2.0351628557     -2.6233936246     0.8587918094
C     -3.0245027888     -1.5734469232     1.0169950455
C     -0.2463251728     -3.047573099     -0.7775348311
C     -1.6599076232     -3.0575742162     -0.4164553154
C     -0.1841481012     -2.6398406301     -2.1834723264
C     2.0438538683     -1.6785249044     -1.7668140754
C     0.8945958578     -1.9056464172     -2.6448879427
C     3.2303298866     0.4705391478     -1.4274779345
C     2.7308433365     -0.555900161     -2.2576633134
C     2.2650004628     2.7094166139     -1.3233158695
C     2.8226712703     1.7185520405     -2.0713195766
C     0.0750142838     3.080573895     -0.6949410093
C     0.8900071677     2.9567384737     -1.8190713729
C     -1.7745086745     2.2277472436     0.6051121228
C     -2.7937476356     1.2190427698     0.80048394
C     -1.2233049069     2.4821659578     -0.695031354
C     -3.5224122802     -0.9230295375     -0.1332230997
C     -3.2742090167     0.5052795292     -0.2745470983
C     -2.4063742711     -2.5735374712     -1.5473865734
C     -1.4707470783     -2.2669506736     -2.6227074798
C     -3.2818006022     -1.5015483347     -1.4106736288
C     -1.6177269429     1.6546937409     -1.8349734444
C     -2.7228300516     0.7494811202     -1.6248609673
C     -1.7018880581     -0.9330648836     -3.0980133758
C     -2.8153574658     -0.448646221     -2.3360270803
C     0.6825710145     -0.7231895659     -3.4411058972
C     1.8781621235     0.0389456466     -3.3184383789
C     1.8603087523     1.3961718259     -3.1701864764
C     0.6002060103     2.0579092109     -2.8809109549
C     -0.6044671254     -0.0700376732     -3.3847382748
C     -0.6360464009     1.3203807816     -2.8782713329


