56

 C     1.3135932633     0.1281233031     3.8818750234
C     2.5120566361     -0.0419905536     3.1193927193
C     2.5283843918     -1.3533937684     2.6121668038
C     0.4602534147     -1.063931413     3.6359256127
C     1.1807696519     -1.9316419752     2.8118888524
C     -0.8274891768     -0.604574385     3.2159051106
C     0.5446322488     1.2463050287     3.6903935771
C     -0.8346491442     0.82639283     3.4034213197
C     0.893293934     2.2979731222     2.7533791645
C     2.8147119074     0.899821844     2.0404926564
C     2.045877605     2.1167176582     1.9009052103
C     3.0163881461     -1.2708809149     1.2736792961
C     3.1477553327     0.1359781752     0.8762577027
C     2.5584961208     -2.1592683812     0.3518418002
C     0.519037673     -2.6143940923     1.7347853913
C     1.400479294     -3.0354392612     0.658333485
C     -1.4829291085     -1.1494802183     2.0782210854
C     -0.848173651     -2.286697931     1.3843044094
C     -2.358879498     -0.247216332     1.3269117166
C     -1.3725398717     1.6952143848     2.4653547353
C     -0.3528621752     2.7301959414     2.1708809564
C     -2.236954262     1.2032704777     1.4404691378
C     -0.3741958153     3.3368879306     0.9273710628
C     1.9600242057     2.6400600443     0.5696526292
C     0.8418143507     3.4150014661     0.1987215126
C     2.7862771924     0.5347827418     -0.4710427545
C     2.2973084757     1.8418547677     -0.6097690682
C     2.5077858835     -1.8407406632     -1.0765439612
C     2.4189815494     -0.4804820385     -1.4897834719
C     0.9075517937     -3.4694367664     -0.54641824
C     1.683287182     -2.8326190693     -1.6458995303
C     -1.3607520427     -2.6992833379     0.0581325035
C     -0.4799800199     -3.372724359     -0.8838903373
C     -2.9522688381     -0.7587586646     0.1374792318
C     -2.4379135744     -1.9810122035     -0.504880798
C     -3.4724050987     0.0978954978     -0.841297829
C     -2.4272157953     2.0463394289     0.2476636556
C     -1.4541457405     3.0544186859     -0.0273425688
C     -3.096062206     1.4729136219     -0.8869580322
C     0.5337328158     3.2087243999     -1.2013806618
C     1.373832123     2.1899961827     -1.6925857005
C     -0.8729435912     3.1235447171     -1.353044794
C     1.4572024863     -0.1508808226     -2.5681119137
C     0.8707118087     1.1997790932     -2.6094362444
C     0.8133715041     -2.5443195489     -2.6657621064
C     -0.5264926875     -3.0099747592     -2.2665481521
C     0.6856146654     -1.2100217238     -3.1549551716
C     -2.5616076158     -1.7753229059     -1.9411820734
C     -3.200493518     -0.5223475719     -2.1492804074
C     -1.4697450423     -2.1142045746     -2.7802534354
C     -0.7358386683     -1.0248352562     -3.4602047969
C     -2.6208021918     1.7122735124     -2.2236675066
C     -1.3651873859     2.3153204239     -2.3941793638
C     -0.463731045     1.3824562873     -3.0893014343
C     -2.6105578809     0.4468435654     -2.9475671143
C     -1.2764099911     0.2467883394     -3.484518884


