56

 C     1.1966421784     -0.2128326516     4.0050597516
C     2.3163565022     -0.4826185815     3.2476466041
C     2.2015302671     -1.8208321306     2.656973462
C     0.2969516086     -1.387828299     3.939592981
C     0.8852780196     -2.3525473977     3.0248263241
C     -0.9824778051     -0.9126934655     3.7214247431
C     0.4081594172     0.9858659546     3.7542631735
C     -0.9630137334     0.5611575632     3.6489823008
C     0.8751158271     1.9010952449     2.8050170553
C     2.7776222043     0.4204679413     2.2145851458
C     2.12013339     1.6421937514     2.0415633645
C     2.6156995062     -1.757378988     1.3378380166
C     3.058308484     -0.360604609     1.0417670765
C     1.9123512512     -2.5054971256     0.3099517739
C     0.0939287581     -2.8916975109     2.021612568
C     0.6307160943     -3.0772102732     0.6662030282
C     -1.7979532811     -1.4039864549     2.6434402481
C     -1.2936839022     -2.4599134322     1.8613699081
C     -1.7755286968     0.9521897594     2.5813753869
C     -2.3816465417     -0.2630221049     1.9762439087
C     -0.048130095     2.5136962322     1.8879341328
C     -1.3753308188     2.0150127876     1.7094054008
C     1.9755598068     2.1957611922     0.726638302
C     0.7048812614     2.9077114839     0.7142718418
C     2.9395252505     0.1681198708     -0.254850305
C     2.4064701611     1.524559624     -0.4514851802
C     2.1147942177     -2.1014717265     -1.0130969511
C     2.7362021645     -0.8003527625     -1.3114677838
C     1.1202775499     -2.3422048539     -2.0405456281
C     -0.4362554727     -2.9947331893     -0.2615147771
C     -1.6137489814     -2.5032973759     0.4754438003
C     -0.2206956071     -2.664010978     -1.6379656519
C     -2.7311134196     -0.2911673229     0.6228473886
C     -2.4409530156     -1.5280047178     -0.1199333969
C     -2.012143611     2.1205020632     0.3966316638
C     -2.8117033974     0.9928017385     -0.1197561414
C     0.0583552192     3.1875629206     -0.4462916204
C     -1.3816499655     2.973649518     -0.54978624
C     1.7635034633     1.8891731741     -1.7373650996
C     0.6717354001     2.8320474885     -1.7301336224
C     2.2665746314     -0.3895257617     -2.546539135
C     1.3188834131     -1.3769042359     -3.0606690317
C     1.7331869561     0.9210546364     -2.7896164505
C     0.2607426379     -0.7086022536     -3.6923615844
C     0.5699038792     0.7541299584     -3.6531345179
C     -1.2897832372     -2.0262315557     -2.3332231039
C     -2.4313773326     -1.4760307526     -1.5533561602
C     -1.0675360683     -1.1490453553     -3.4467405589
C     -3.0694468118     0.9220193698     -1.5081190553
C     -2.9205051581     -0.3616463082     -2.2024698899
C     -2.1191044857     -0.15433741     -3.4147151035
C     -1.645070512     2.8413193435     -1.9382612079
C     -0.3646027263     2.7633292766     -2.6775566151
C     -0.4706083616     1.6845800755     -3.6057492635
C     -2.5351763421     1.8993717408     -2.4142674285
C     -1.8501501205     1.186856885     -3.5219378368


