56

 C     1.5212728581     -0.097090536     3.8764856581
C     0.7336938697     -1.2383770923     3.5406459625
C     1.349289507     -1.9237563834     2.4551264324
C     2.6158898557     -0.0336695717     2.9568736688
C     2.548764728     -1.1538439643     2.0742212533
C     2.6621936058     1.284104416     2.3741420389
C     0.7083468189     1.0371715261     3.5892875131
C     1.3838641604     1.9332081431     2.6995767736
C     -0.6416188532     -0.820772837     3.3650933524
C     -0.650560641     0.6236015576     3.297895218
C     -1.4407832778     -1.5376514382     2.4914275485
C     0.558534698     -2.5779804647     1.4615571962
C     -0.8673183426     -2.5445437176     1.6387539587
C     1.0952753257     -2.7283593742     0.1037287153
C     2.913169415     -1.0332262769     0.6966549793
C     2.274555553     -1.9329870752     -0.2961722084
C     3.1840629001     1.412153332     1.0988571499
C     3.4056517912     0.2408307452     0.2660192934
C     2.6117614747     2.4298309448     0.2570416334
C     0.6293154532     2.6285498778     1.7064899111
C     1.3442227838     2.9926822285     0.5125579207
C     -1.4546631657     1.3117461324     2.3430943045
C     -0.8296205841     2.4066199977     1.6022052526
C     -2.5163257618     -0.8753820347     1.7872306715
C     -2.5698288649     0.5542269428     1.7305658302
C     -1.7657178863     -2.670918965     0.5186373893
C     -2.8249412735     -1.6778668227     0.6299571526
C     0.1688763961     -3.1476018561     -0.9107852811
C     -1.2708573178     -3.0202762925     -0.7203070028
C     0.4052756498     -2.8255623513     -2.2751940739
C     2.4018897412     -1.5854619936     -1.6774234922
C     1.4787572986     -2.0591110837     -2.6469325301
C     3.1699159227     0.6690103674     -1.1105151396
C     2.6490501524     1.9974663695     -1.10818962
C     2.6503862919     -0.1988712775     -2.0350276736
C     0.6728066414     3.0788460359     -0.7942173719
C     1.4503402498     2.3651436407     -1.7925015911
C     -1.4609960515     2.8034341917     0.3838997043
C     -0.6799273029     3.0213946726     -0.8511466797
C     -3.2442368837     1.1085363981     0.592025355
C     -2.6835623997     2.2623298273     -0.0214061149
C     -3.393510909     -1.0986321861     -0.5217670875
C     -3.7086302661     0.2693620112     -0.4811555826
C     -1.8614930331     -2.4211052819     -1.9415253254
C     -0.8324343693     -2.2704624402     -2.8796026285
C     -2.8174028421     -1.406511873     -1.8365705028
C     0.9209474412     -0.8984423048     -3.3704424646
C     1.5805246929     0.2471835279     -2.9633439773
C     0.8263321091     1.45876352     -2.6973831824
C     -0.5201554414     -1.0013473754     -3.441909391
C     -1.3527269973     2.3339090493     -1.9551436755
C     -2.6595415671     2.0481034438     -1.4866144507
C     -3.2837886494     0.848359267     -1.7586311223
C     -2.6103866771     -0.148143008     -2.5347264563
C     -0.6425942729     1.4146805352     -2.7950921861
C     -1.3313437842     0.1467071864     -3.1463249951


