56

 C     1.5207832269     0.0467885727     4.2712262661
C     0.7607449197     -1.1583514117     4.1491439152
C     1.5897296019     -2.0857173671     3.5028870062
C     2.6857520902     -0.0408885658     3.3424175454
C     2.7894351439     -1.3494632888     2.9240475852
C     2.5976082431     1.0298251392     2.3821549908
C     0.7516856849     1.1176945649     3.8522183193
C     1.5115301162     1.8746013954     2.8712269593
C     -0.5279102107     -0.8034208104     3.5040490401
C     -0.5724227854     0.6423221562     3.4355116507
C     -1.0434830209     -1.5449565366     2.3992354695
C     1.0776633593     -2.8811057232     2.4999446068
C     -0.2610855354     -2.7074818063     1.9783489259
C     2.8401731375     -1.6595745774     1.528257694
C     1.9854946693     -2.8101374955     1.3601326562
C     2.6439523166     0.7712621227     0.9608469118
C     2.7865355683     -0.6155055892     0.518420568
C     1.997874426     1.7458438005     0.0466440111
C     0.8105453392     2.6538272803     2.01989451
C     1.2443506573     2.8047155385     0.641059303
C     -1.2692132662     1.328703952     2.4306443924
C     -0.658924528     2.5787258093     1.9895905502
C     -1.86709969     -0.854006082     1.3758000853
C     -2.05154541     0.5792982657     1.443124634
C     -2.1137374598     -1.5351290643     0.0845184236
C     -0.1842015755     -2.9832351927     0.5929592511
C     1.2520040092     -2.9740739344     0.2114316813
C     -1.1575861983     -2.5695936069     -0.3305252746
C     2.2792307444     -0.9668583636     -0.8030263827
C     1.5822361489     -2.2374598456     -0.9407426519
C     1.6840085641     1.4072655665     -1.354793419
C     1.941293408     0.0470372102     -1.7955720154
C     0.6799406651     2.1981073868     -2.0941418993
C     0.1451762248     3.3767450633     -0.0349033536
C     -1.0369572312     3.1456141498     0.7938363906
C     -0.1752892083     3.0733608903     -1.3540407589
C     -2.5657991022     1.2930579257     0.2593298884
C     -2.0436663235     2.592910208     -0.0501149935
C     -1.6355814247     2.8668400808     -1.4105101784
C     -2.8065053313     -0.8913750349     -0.9529148909
C     -3.0763626481     0.5389641304     -0.8506115327
C     -2.6204547326     -1.2212330056     -2.3739704015
C     -0.78499876     -2.6671499091     -1.6933499466
C     0.6620576657     -2.4580611268     -1.9999140173
C     -1.5368206155     -2.0716233736     -2.7385196037
C     1.3617136152     -0.411784388     -3.0536792988
C     0.7639353686     -1.7390752499     -3.1547648745
C     -0.5832452348     -1.6077568559     -3.7398288135
C     0.0750955287     1.6661364216     -3.2915884537
C     0.5105390949     0.4167807325     -3.8005072691
C     -0.6869418067     -0.350753028     -4.2927025945
C     -2.2069794727     2.1685667419     -2.4590908875
C     -3.080942514     1.0676682153     -2.1583279437
C     -2.8154973046     -0.0135216178     -3.1160087676
C     -1.3455569022     1.7340782489     -3.5101580212
C     -1.8222812253     0.4425512818     -4.0145950169


