56

 C     1.536265294     0.017931189     3.7965825575
C     0.7552025688     -1.1600075545     3.6348525414
C     1.3343389874     -2.0292114588     2.6684929617
C     2.5117360924     -0.0138077662     2.769348623
C     2.4368637733     -1.2657491632     2.0602453721
C     2.4331689835     1.1768949356     1.9784563528
C     0.6608620271     1.1155069471     3.4555571603
C     1.2518534371     1.9063873762     2.4348065459
C     -0.6527036131     -0.7939240354     3.494877018
C     -0.6834277214     0.6631991086     3.2670809816
C     -1.4917647074     -1.6208655415     2.7978929722
C     0.4848798782     -2.8644503536     1.8726260908
C     -0.950830852     -2.7884889806     2.0826681114
C     0.9461029597     -3.1812272557     0.5678864855
C     2.6846915266     -1.3222446728     0.6659654901
C     2.0906940037     -2.4507565373     -0.0149868161
C     2.7709774827     1.1728360119     0.6097562289
C     2.944031311     -0.0881308723     -0.1031519717
C     2.292261705     2.3251795924     -0.1056909023
C     0.4291017274     2.6254209273     1.524885481
C     1.0831854585     3.0303760068     0.3402046911
C     -1.5452625152     1.2485683681     2.2822362674
C     -1.0168968491     2.3769115867     1.5002132869
C     -2.5523348106     -1.0293939349     1.9875345242
C     -2.5814641117     0.382899876     1.709899756
C     -1.8100570714     -2.9848717337     0.9858683654
C     -2.8169797828     -1.9451357154     0.9501042086
C     0.0290466138     -3.4423119739     -0.5201431828
C     -1.3466260065     -3.2042764701     -0.3470800835
C     1.9341879082     -2.4300759168     -1.4036785614
C     0.6233988355     -2.96961048     -1.7176504254
C     2.7238621908     -0.0806487219     -1.5528152369
C     2.1319240585     -1.2445722858     -2.1528858719
C     2.3287637198     2.3760861032     -1.4974210695
C     2.4651382098     1.157150205     -2.2469678477
C     0.3685117622     3.4652747224     -0.8464856845
C     1.1843476084     3.1365747554     -1.9928328251
C     -1.6960112947     2.7529943232     0.3042633965
C     -1.0029487332     3.2630709374     -0.885318102
C     -3.1443163867     0.7433808044     0.4431228727
C     -2.7657315075     1.9538254131     -0.1548615155
C     -3.0020507569     -1.5469628842     -0.4093187022
C     -2.0534425876     -2.2954767752     -1.2485329204
C     -3.2623580171     -0.2212238683     -0.6549914222
C     -0.0300230219     -2.0745642531     -2.5827923127
C     0.9704619808     -1.107439407     -3.015162947
C     -1.392270178     -1.6489953214     -2.3267749221
C     1.4796894942     1.2280152468     -3.2892264116
C     0.6501808126     2.4012577531     -3.0382685196
C     0.5907760181     0.1455857333     -3.47356356
C     -1.5863474014     2.5799875524     -2.0686217972
C     -2.6514502064     1.7880027635     -1.6049910933
C     -2.7627219186     0.4108818888     -1.8774497844
C     -1.7706927688     -0.2537439173     -2.6878405278
C     -0.745407668     2.0193574276     -3.0498762608
C     -0.8123859612     0.5946103159     -3.3160470053


