56

 C     1.3380120122     -0.0059684052     3.6560419074
C     2.5013644712     -0.2051774375     2.9240338362
C     2.4728419854     -1.5594365709     2.3660445725
C     0.485601891     -1.1997316702     3.4167020037
C     1.2019432379     -2.1509682967     2.615630405
C     -0.7881437676     -0.7695235822     3.0657450849
C     0.5494785322     1.1582397851     3.4773804597
C     -0.8242413022     0.6920977991     3.2945496206
C     1.0079554681     2.1850961691     2.6171029386
C     2.8536578095     0.6944060971     1.8627528438
C     2.1321638496     1.8938928582     1.7409282665
C     2.9954653041     -1.5180672741     1.0545652807
C     3.1353772331     -0.0973209244     0.6716143974
C     2.5165325374     -2.4427342513     0.1522082707
C     0.5272475152     -2.8632126222     1.5755503503
C     1.3723014031     -3.2675724617     0.4806901867
C     -1.4988278256     -1.3663786529     1.9430327642
C     -0.8757659733     -2.5105223202     1.2770046547
C     -2.4838450642     -0.5455797453     1.2493955049
C     -1.7195513787     1.450423238     2.6100894862
C     -2.6705672616     0.8154772884     1.6995043966
C     0.0677615157     2.9710376245     1.8626501482
C     -1.3105737544     2.731219713     1.9973236726
C     1.8267023958     2.4040722978     0.4327907369
C     0.5790543631     3.1398614738     0.5075416555
C     2.7981640922     0.3400590303     -0.6281860839
C     2.1878779101     1.6846066815     -0.7466343195
C     2.4351932065     -2.089620553     -1.2679432545
C     2.5127791226     -0.6976095978     -1.6554778714
C     0.805767052     -3.6390126216     -0.7663111979
C     1.4943258009     -2.947829664     -1.8610000933
C     -1.3770990444     -2.8465472704     -0.0235992577
C     -0.5518343637     -3.5012035367     -0.9937125018
C     -2.8137019897     -0.8212799471     -0.1615028754
C     -2.2257850864     -1.9482902896     -0.7568784595
C     -3.1632266416     0.2568445834     -1.0638648341
C     -3.0997676761     1.8256962489     0.8117973151
C     -2.1881146564     2.9831904477     0.9240379293
C     -3.3470178554     1.5815596288     -0.5363490026
C     -0.2926531153     3.2674658364     -0.6228029608
C     -1.7293383644     3.25771533     -0.3869078612
C     -2.5867634747     2.5198933485     -1.3068396243
C     1.418985002     1.9870098742     -1.9039917473
C     0.1856740145     2.717196195     -1.8491630705
C     1.7398932319     -0.3443135526     -2.7992803202
C     1.2803983074     0.9955158707     -2.9309501558
C     0.5110469584     -2.4806507375     -2.8073237762
C     -0.7738087331     -2.8871491758     -2.3135973484
C     -1.7821669755     -1.9285232908     -2.1672113786
C     0.6795495201     -1.1971535785     -3.3318538753
C     -2.4949665377     0.3954774207     -2.3231599173
C     -2.0560419354     1.8101730071     -2.4038496085
C     -0.7337725328     2.0475951076     -2.8045922155
C     -0.0263389605     1.0337086148     -3.487323053
C     -1.7179335005     -0.670371246     -2.8709575615
C     -0.4812679624     -0.3377822636     -3.5154444732


