56

 C     1.2265437477     0.0997048804     4.0000444412
C     2.3444519827     -0.1638712966     3.2354499339
C     2.2371389534     -1.5243956273     2.6761853197
C     0.3557838123     -1.099846689     3.8940872736
C     0.9259893938     -2.0225873073     2.9398147715
C     -0.9309582883     -0.6695169676     3.7155668207
C     0.4024974142     1.2637298047     3.7298464713
C     -0.971325589     0.7994583861     3.7014486907
C     0.7833146943     2.1298854847     2.7005961297
C     2.7531715824     0.7027874908     2.158804886
C     2.0030984582     1.8665281784     1.9323356202
C     2.7685030485     -1.5098758888     1.3805763062
C     3.1079094348     -0.1292246225     1.012994453
C     2.1540022929     -2.3131983774     0.4184896764
C     0.1167901938     -2.5048427047     1.8317810675
C     0.8206484738     -2.8097101323     0.6418525318
C     -1.7774752122     -1.1446637103     2.642460078
C     -1.2920038346     -2.0598733864     1.6730942367
C     -1.9101239967     1.2109085932     2.7615211941
C     -2.5826345496     -0.0109043787     2.2554009686
C     -0.2053761655     2.6653561455     1.765400001
C     -1.584792413     2.2498153914     1.7976251832
C     1.7864269939     2.3045984384     0.5880483515
C     0.4313966901     2.855603223     0.5030832237
C     2.9591912896     0.3045791801     -0.3186408925
C     2.3423408109     1.6256703589     -0.5153492302
C     2.2929570386     -1.9979097827     -0.9699196606
C     2.7728938708     -0.719713825     -1.3782497607
C     0.1834676804     -2.9098648109     -0.6616106803
C     1.1711061175     -2.6064200349     -1.6580804183
C     -1.9078418799     -2.0172829994     0.3267578128
C     -1.1775032221     -2.522677204     -0.8484515742
C     -3.1904127946     0.0113035616     1.0311178992
C     -2.9238656154     -1.0545440337     0.0796497451
C     -2.3336970749     2.2718004276     0.5823331578
C     -3.3031359169     1.2600039173     0.3104660928
C     -0.3097750634     2.8599010752     -0.7298315034
C     -1.7117857367     2.61380346     -0.6914409859
C     1.7555751032     1.9196475428     -1.7943273193
C     0.3920375922     2.4792432401     -1.9015153486
C     2.381292727     -0.2904216018     -2.6946966908
C     1.9417728698     1.0726544503     -2.8679966422
C     0.7983810248     -2.160665166     -2.9400327474
C     1.5072224771     -1.0712593164     -3.495759467
C     -1.5508663819     -2.0739466406     -2.173830606
C     -0.6037585811     -1.9987336726     -3.2210531526
C     -3.1083892766     -0.456766103     -1.241510135
C     -3.2640085198     0.9659411892     -1.0694431967
C     -2.3270264877     1.8289335703     -1.7329916278
C     -2.4415373397     -0.9371414679     -2.3423839793
C     -0.2670276697     1.8815403593     -3.0425508734
C     0.7295182159     1.1117384015     -3.7264520765
C     0.4776451558     -0.1763558273     -4.1372116844
C     -0.8043438761     -0.74801968     -3.9428560007
C     -1.6043925769     1.3626084859     -2.8789458921
C     -1.8390110878     -0.013512012     -3.3117001918


