56

 C     1.3799415937     -0.0018274632     3.9170382797
C     0.575936368     -1.1815656656     3.8305459765
C     1.1980059182     -2.0854372258     2.9045586153
C     2.427902597     -0.1033891522     2.9248179296
C     2.2758436563     -1.3362797201     2.2213030066
C     2.4868038359     1.105740637     2.1827484771
C     0.5870285539     1.0927196049     3.5411050605
C     1.2920392254     1.8554528796     2.5428075898
C     -0.7904508867     -0.8022528038     3.6001547216
C     -0.7597658796     0.620886113     3.2438530636
C     -1.5920015573     -1.6715868896     2.867446444
C     0.3863649666     -2.9367336466     2.1704989121
C     -1.0230254628     -2.8773575166     2.363818523
C     0.6103624679     -3.1186544611     0.7218539258
C     2.3979636197     -1.3716227625     0.7940428909
C     1.5420526667     -2.3124690812     0.0225515008
C     2.9206241791     1.0958507505     0.8420442343
C     2.9270932286     -0.1853093621     0.1265542934
C     2.5774844457     2.2855326303     0.1226918275
C     0.5803952014     2.5557750416     1.5583408794
C     1.364090572     2.9807578128     0.4480701245
C     -1.4593452388     1.1028688819     2.1117128112
C     -0.8598149643     2.2376411342     1.3593700654
C     -2.486797648     -1.1546920645     1.8299029901
C     -2.4165585521     0.1990824192     1.4203334163
C     -1.662914834     -3.1876546941     1.1064608593
C     -0.6673033263     -3.4478711699     0.1218073579
C     -2.6616034879     -2.2092708922     0.8366890108
C     -0.9507297217     -3.1123079013     -1.2218171256
C     1.2533608949     -2.0293263834     -1.4061471709
C     0.028137769     -2.4407678724     -2.001458583
C     2.8227301618     -0.1123795222     -1.3001919427
C     1.9264572333     -0.9440496827     -2.0223956205
C     2.6995956025     2.3317830474     -1.29698953
C     2.8620629358     1.1553035789     -1.9920219565
C     0.740384956     3.4290726923     -0.7954076071
C     1.5758851724     3.0833793186     -1.8844913487
C     -1.4247207952     2.6192414304     0.144144565
C     -0.6589019271     3.2901192927     -0.9111466629
C     -2.8635297833     0.5306227308     0.0511393275
C     -2.4651550181     1.7925264805     -0.4974472191
C     -2.9439099082     -1.8946777863     -0.5003663814
C     -2.2330870573     -2.547790063     -1.5391523454
C     -3.1621900306     -0.5043304768     -0.8837160058
C     -0.6973862991     -1.5218786478     -2.9313023186
C     -2.0608522007     -1.6048909174     -2.6103529042
C     -2.7420475361     -0.3802606774     -2.2716192537
C     1.2918009398     -0.1189322575     -3.086991326
C     1.8857037896     1.1366579194     -3.092508209
C     1.0665331853     2.3265356863     -2.98734964
C     -0.1203347165     -0.2877624502     -3.3697067892
C     -1.1630219626     2.8142054607     -2.1487514282
C     -2.2976598421     1.9423078179     -1.8822755745
C     -2.2438748044     0.8228764453     -2.7576911556
C     -0.3392330562     2.1959919852     -3.1252970012
C     -0.9363692194     0.8803974079     -3.4118115996


