56

 C     1.4450020513     0.1462189533     4.2407608616
C     0.6731313289     -1.0415236054     3.9610740832
C     1.4970293795     -1.9193482368     3.2620305185
C     2.6573800657     0.086023264     3.3832415857
C     2.7393588386     -1.1863398508     2.8446216021
C     2.6854271124     1.2051942601     2.4905757851
C     0.7180885778     1.2296957679     3.7748800745
C     1.5482974024     2.0388287673     2.9042624616
C     -0.5766691945     -0.6445649018     3.2953242729
C     -0.5706761077     0.7882397093     3.2255394579
C     -1.117502845     -1.4004060108     2.2166369463
C     1.0210319907     -2.6646126367     2.1719385399
C     -0.3595877941     -2.5813685621     1.7693039221
C     2.8742621663     -1.4081182405     1.444424829
C     2.0315673474     -2.545483425     1.1272968781
C     2.8955320265     1.0123600492     1.0688850309
C     2.9281014328     -0.330001014     0.4955907995
C     2.4150245801     2.0610885132     0.2162488602
C     0.9203866981     2.8483247351     1.9993447657
C     1.5814192445     3.0730129344     0.7552220152
C     -1.1702536396     1.4814706178     2.1381051967
C     -0.5093589165     2.6748349511     1.6832122696
C     -1.9815511718     -0.7241268361     1.244775931
C     -2.0082543856     0.7360210363     1.1939673215
C     -2.4429136309     -1.4706994008     0.0704204352
C     -0.642464905     -3.1125862005     0.4876374334
C     -1.7418849603     -2.6681234544     -0.3071530484
C     1.719196934     -2.8327691351     -0.1753611281
C     0.4469384311     -3.3893948073     -0.4152720335
C     2.3992408526     -0.5675169545     -0.8913104554
C     1.9482956488     -1.8488614172     -1.2376936523
C     1.9979558177     1.8370965004     -1.1744264566
C     1.8897540356     0.5547302071     -1.7303095822
C     0.5880957191     3.3863101591     -0.2173849472
C     -0.713435112     3.1166292538     0.3411483948
C     0.952314753     2.8248054102     -1.4575825212
C     -2.476241028     1.4111195073     -0.0199840339
C     -1.7273940243     2.5875908487     -0.4936496541
C     -3.1342818379     -0.7771951193     -0.9609075917
C     -3.1929022287     0.6558024763     -0.991198327
C     -3.0374199816     -1.2227824246     -2.3572037508
C     -1.3720244431     -2.8469786206     -1.723283137
C     0.0356618222     -3.0778334504     -1.7436511968
C     0.8998468801     -2.0709711625     -2.2424419914
C     -1.8875341178     -2.0378183263     -2.6969058845
C     0.8955821038     0.3186015871     -2.8327923414
C     0.3646892722     -1.0220798452     -3.0616739856
C     -0.9972173379     -1.2102279642     -3.5224833441
C     -0.0658184826     2.5396242123     -2.3288484351
C     -1.4558045247     2.6659101381     -1.9061871392
C     0.0312780034     1.3994565763     -3.2204179482
C     -3.2137698195     1.0490977003     -2.4081265473
C     -3.1158658639     -0.1412384752     -3.2194574993
C     -1.7995951398     -0.0885810893     -3.9075585436
C     -2.2121349658     1.9214811972     -2.8249286596
C     -1.2773340483     1.1819818241     -3.7382764166


