56

 C     1.5993322573     -0.1944508372     4.114480311
C     0.7965293064     -1.3714865277     4.242450927
C     1.2366907081     -2.3051637756     3.2853094754
C     2.5223318586     -0.4136265692     3.0136606108
C     2.3437314971     -1.7351866732     2.5034580247
C     2.4446644565     0.6790574364     2.0926028435
C     0.7700112773     0.86875947     3.6932372186
C     1.3381187256     1.5381645091     2.5479289393
C     -0.5667313728     -1.0208093234     3.8441673121
C     -0.6137688169     0.3985496824     3.5868613844
C     0.0838066443     -2.8035318224     2.5496088457
C     -1.0538741003     -1.9167692803     2.846692425
C     0.2606287075     -3.2213896306     1.2691843012
C     2.4276710024     -1.9771040636     1.101291386
C     1.544779786     -3.006171489     0.5805401318
C     2.6186864328     0.4854439557     0.7187097649
C     2.738468717     -0.8770009429     0.1922966953
C     2.127963485     1.5680880403     -0.1558015385
C     0.5090129268     2.1678109474     1.6239573833
C     1.0129057318     2.4061220138     0.2749046227
C     -1.4410570419     0.9001569523     2.5916325107
C     -0.9554048803     2.0683298902     1.8174988604
C     -1.8823532357     -1.4358384023     1.7908654879
C     -2.2862292745     -0.041696912     1.8546017853
C     -0.801939799     -3.0328159392     0.2620422324
C     -1.8304468625     -2.0642859322     0.4574959342
C     1.2617550909     -3.0653043195     -0.7772698873
C     -0.2014095691     -3.1407783016     -0.9930701346
C     2.5565988473     -1.0483786364     -1.2449041159
C     1.7795504787     -2.1651048586     -1.7167607067
C     2.4003656604     1.4562164609     -1.5271093331
C     2.5802907932     0.0936157548     -2.0964150417
C     1.6720989318     2.2322380515     -2.4653648273
C     0.1401347411     3.0235337425     -0.7121130038
C     0.475968628     2.9049333818     -2.0990993294
C     -1.7800920124     2.5978392317     0.8499948886
C     -1.261171318     3.1622925498     -0.3878611768
C     -3.0358517875     0.4633489237     0.790055041
C     -3.0283073064     1.8950091972     0.5212559625
C     -2.3323490742     -1.3633241061     -0.728561368
C     -3.1246547458     -0.2070814652     -0.479816486
C     -0.5387562819     -2.3395831874     -2.0975768871
C     0.7184499373     -1.9246044329     -2.7121930028
C     -1.6436369804     -1.4430132244     -2.0231205118
C     1.9053424091     0.0769080579     -3.3450921887
C     1.4168911181     1.3925178533     -3.6141895839
C     0.7788005182     -0.8154867199     -3.5083272744
C     -0.5561895035     2.4390310313     -3.053620067
C     -1.6019369441     -0.2635637932     -2.9135288007
C     0.0322588691     1.3773814006     -3.8415527237
C     -0.4314280645     0.0127135786     -3.6819736215
C     -2.2432234334     2.8860513313     -1.3802377104
C     -3.3347549334     2.1306546884     -0.80679908
C     -3.2856534701     0.8280502149     -1.4731121221
C     -1.8412639242     2.2588411217     -2.606574251
C     -2.4213548111     0.8818916767     -2.5747405115


