56

 C     1.5317658442     -0.1792332388     4.1853164637
C     0.7769883894     -1.3065122775     4.2868281927
C     1.2699115273     -2.32789308     3.3800845849
C     2.5014719302     -0.3918442931     3.0935281434
C     2.3028232049     -1.7236366393     2.5495990438
C     2.370434643     0.6899087562     2.2271017903
C     0.6456951999     0.9214680278     3.7758671265
C     1.2656797716     1.5717423641     2.7118940435
C     -0.6325129018     -0.990973419     3.9094200659
C     -0.6999213236     0.4041141395     3.5676972137
C     0.1393658914     -2.8554523062     2.7359222337
C     -1.038304873     -1.9341041834     2.9730308051
C     0.2870298222     -3.3674210215     1.4586147997
C     2.2540921143     -1.8994269031     1.1176007602
C     1.385281016     -2.9197487953     0.6236977335
C     2.5002097627     0.5664368998     0.8056047042
C     2.4739564784     -0.7454311265     0.2150691237
C     2.1623358356     1.749374548     0.0323652299
C     0.4946946899     2.2791229929     1.7725877571
C     1.1670697984     2.7035004123     0.5609805683
C     -1.4139150148     0.818578686     2.4029817926
C     -0.9216092655     2.0107062159     1.7384383415
C     -1.8768489441     -1.5574567686     1.843012351
C     -2.1207941687     -0.1566901385     1.5708770202
C     -0.863118496     -3.4381689571     0.6251933014
C     -1.9044653749     -2.4816044076     0.7468879228
C     0.9121287271     -2.9387106897     -0.7532367942
C     -0.4327834889     -3.3938820083     -0.7395627426
C     2.1550665698     -0.8392065001     -1.217469689
C     1.3166891243     -1.9573984173     -1.7123343444
C     2.2922530004     1.6500207502     -1.3653240784
C     2.2067993677     0.336162153     -1.9869952333
C     1.6468011788     2.5917555083     -2.230289068
C     0.4212011312     3.4956807621     -0.3393897774
C     0.7331834411     3.5067503123     -1.740790993
C     -1.6238680211     2.484277153     0.6084924891
C     -1.0177812852     3.4047944223     -0.2566738228
C     -2.5984726774     0.2495351398     0.2245871125
C     -2.4904870069     1.5959951285     -0.1513446797
C     -2.2913177031     -2.0610187833     -0.6052802025
C     -1.4137691835     -2.7526375955     -1.5368367784
C     -2.6951404518     -0.7399505795     -0.8751987495
C     0.4355202725     -1.7238001188     -2.8052857966
C     -0.9776559842     -2.1088960449     -2.6816035557
C     1.4213597405     0.5027046832     -3.2225934328
C     1.0587268109     1.8605146109     -3.3630072651
C     0.4753583852     -0.4878209038     -3.5649467232
C     -0.5151803787     3.3173376663     -2.5232556361
C     -1.5442167978     3.2100623578     -1.5984752337
C     -2.4216350051     2.0528391094     -1.554857616
C     -0.3089405973     2.2739655365     -3.49965434
C     -2.5450930733     -0.2807721228     -2.2490866653
C     -1.7344962432     -1.0089011813     -3.139627265
C     -0.8627693405     -0.0685333742     -3.8386595649
C     -2.3625189983     1.1361368474     -2.5823224727
C     -1.29627703     1.2536407216     -3.6091781347


