56

 C     1.1444941401     -0.0496168545     3.843918807
C     2.3105444476     -0.3627009278     3.2299960268
C     2.2402469127     -1.8075156937     2.8149926573
C     0.2797544122     -1.2758235203     3.8367322367
C     0.8981838949     -2.2712629138     2.9936478653
C     -0.9917123269     -0.8334879359     3.6025947569
C     0.3507046391     1.0870461911     3.4044528557
C     -0.982147908     0.6381934937     3.4481077576
C     0.7703139042     1.8882249762     2.2690623438
C     2.7756169673     0.4047632527     2.0889102945
C     1.9995016306     1.523582526     1.5776720575
C     2.8808271342     -1.8957859885     1.6058926749
C     3.2958869555     -0.542206856     1.1863982201
C     2.2617360594     -2.5067953732     0.4818022995
C     0.1740677468     -2.793650739     1.8501577089
C     0.9368920051     -3.0240722524     0.6001663456
C     -1.7775822855     -1.361846581     2.5331852311
C     -1.2426306811     -2.3992139665     1.6997763107
C     -1.920766869     0.9747919411     2.4597849928
C     -2.4963874451     -0.2509103766     1.9379403886
C     -0.2883536246     2.5622158681     1.5132403296
C     -1.6742915998     2.0848914008     1.6091822616
C     0.0888122193     3.1943997843     0.2942474559
C     2.1407615851     1.8199774784     0.1476955432
C     1.2743889249     2.7783466125     -0.4117750236
C     3.1291604173     -0.4490058819     -0.2039894098
C     2.6206984422     -1.7023998869     -0.687722779
C     2.7128637457     0.8045792755     -0.7767292883
C     1.8878340183     -1.7379507518     -1.8961191166
C     0.2273596268     -3.1421594664     -0.6509733226
C     0.7301573694     -2.5615893775     -1.9225303394
C     -1.8623039967     -2.500329191     0.4081742867
C     -1.1670418554     -3.1013068107     -0.6918838036
C     -2.9543379129     -0.2923712572     0.5905305953
C     -2.7099573176     -1.4837067867     -0.1386047004
C     -2.5147379365     2.1439512869     0.4506797911
C     -3.0581201029     0.9465867883     -0.1028900069
C     -0.8931911441     3.518862161     -0.7058847123
C     -2.1652367003     2.991403461     -0.6474438066
C     0.9872327989     2.8172044611     -1.8635441088
C     -0.3404911327     3.2541087056     -2.0406284275
C     2.3007398999     0.7473726887     -2.1148033463
C     1.9188420644     -0.5470930895     -2.7053476417
C     1.4723445872     1.7909754511     -2.6976184393
C     0.8360710244     -0.2745083965     -3.5602124971
C     0.5638219486     1.1601699042     -3.5863922967
C     -0.4137621449     -2.1628337663     -2.6969782509
C     -1.5813076694     -2.4591437302     -1.9170162716
C     -2.4578499939     -1.4195159112     -1.5877676954
C     -0.3884917731     -0.9818993642     -3.4664923658
C     -2.8856713389     1.0254374899     -1.5784174697
C     -2.4412681412     2.3065029483     -1.9122525383
C     -1.2979343645     2.4788772504     -2.7837461013
C     -0.8344483997     1.3683206778     -3.5177183623
C     -2.4271988457     -0.1494392909     -2.3025733518
C     -1.4426360118     0.0293568633     -3.3108866311


