56

 C     1.6105576591     -0.0992379612     4.3450368927
C     0.7753338668     -1.2424450714     4.3949210735
C     1.1730841299     -2.1005198085     3.3283274062
C     2.4981422253     -0.2631238531     3.1888968419
C     2.2474501369     -1.524376421     2.5542040479
C     2.545892155     0.9063619701     2.3766741986
C     0.8066209187     1.0030327399     3.9421809862
C     1.4798476533     1.7824474098     2.9384226202
C     -0.5488008524     -0.8234589157     3.9413559214
C     -0.5622299829     0.5694791086     3.6711160525
C     0.0154826452     -2.6103552553     2.6130419605
C     -1.0812497493     -1.7145340962     2.9377401889
C     0.1857795413     -2.9991889473     1.30744296
C     2.2473212271     -1.6298378619     1.1145285654
C     1.3656968528     -2.6012377923     0.5341278153
C     2.6722644565     0.8184395736     0.9752958621
C     2.5832659929     -0.4855590515     0.2937345456
C     2.2639837347     2.0136877909     0.2205200078
C     0.7055770455     2.4879358694     2.0647390033
C     1.2328335335     2.8239679063     0.7729852135
C     -1.2809833018     1.0774573161     2.5241677311
C     -0.7313263682     2.2198255068     1.8879483793
C     -1.921597864     -1.2564977429     1.8945443499
C     -2.0763937479     0.1859058821     1.6770484537
C     -0.9493857997     -3.0075746226     0.4365941299
C     -2.0437309512     -2.1480685193     0.7400087763
C     0.9566193081     -2.5428052537     -0.8168114286
C     -0.4330024706     -3.0164457488     -0.9145430042
C     2.2903795232     -0.5175069289     -1.1437968738
C     1.4289437007     -1.5557546509     -1.7274147961
C     2.3718742296     1.9997300616     -1.1845638973
C     2.4591803928     0.6857968174     -1.8989121091
C     1.5786790681     2.8645772057     -1.966198728
C     0.1282022172     3.2000418976     -0.0658685493
C     -1.0543137059     2.5934939437     0.5485990707
C     0.2947976428     3.263417531     -1.4325218345
C     -2.5241102062     0.6512799924     0.3690507415
C     -1.9704951232     1.8641324727     -0.2402398877
C     -2.824462115     -1.705928387     -0.3542022542
C     -3.0948674141     -0.3174341729     -0.5180253981
C     -1.2283913512     -2.7040506092     -1.9826098234
C     -2.5857938622     -2.2479119174     -1.6886294902
C     0.6254158113     -1.299173241     -2.9452899052
C     -0.7001781052     -1.8892310955     -3.0638654135
C     1.838578556     0.8405318853     -3.1465847142
C     1.3252838337     2.2053528353     -3.2146170014
C     0.8173367735     -0.0592726329     -3.6100982806
C     -0.7347820027     2.6796222986     -2.2849722981
C     -1.8329370189     1.977983719     -1.7187023308
C     -0.0395925409     2.1208429881     -3.4532815817
C     -0.3484922305     0.7818695392     -3.904662222
C     -3.1752396749     -0.077104725     -1.9593849198
C     -2.9553908     -1.3278456797     -2.662107802
C     -1.8021413396     -1.0971712736     -3.5150888702
C     -2.4120613192     0.9396672987     -2.5388811491
C     -1.6124749338     0.306780677     -3.641379233


