56

 C     1.2583998353     -0.0968754884     3.9883767359
C     2.4513289709     -0.3618644838     3.339338515
C     2.3176694425     -1.6383567895     2.5753323843
C     0.4003937678     -1.2919228704     3.7852730926
C     0.9989142756     -2.1234075377     2.7503114679
C     -0.8830948334     -0.8711641972     3.6263523074
C     0.4769050725     1.0680912018     3.6398262467
C     -0.8864379027     0.6157808507     3.6017550757
C     0.9087147902     1.9548246818     2.5799597036
C     2.9933657762     0.5856510993     2.4615582527
C     2.2427260233     1.7374862516     2.0691317061
C     2.8828174452     -1.4497394202     1.2907680865
C     3.411021613     -0.109910222     1.2448798729
C     2.2330202785     -1.9701192159     0.1407875203
C     0.2274036269     -2.5109143218     1.5952268636
C     0.9474920689     -2.627720766     0.3345575992
C     -1.7158227799     -1.3239209644     2.5603896336
C     -1.2137244686     -2.1746689309     1.5406311035
C     -1.8316765023     1.0388208902     2.6888574408
C     -2.5228732567     -0.1714807236     2.1862783903
C     -0.1204043629     2.5066231922     1.6474172781
C     -1.5309655867     2.1047220464     1.7512187764
C     0.3059779623     2.9373977785     0.36085767
C     2.5115097931     1.9102691707     0.650229577
C     3.1580375258     0.7010373313     0.1373808744
C     1.6106783539     2.550207563     -0.1530106069
C     2.4822700369     -1.2902604524     -1.1443920798
C     2.7789337976     0.1325364135     -1.1181437587
C     1.8191127159     -1.8115418898     -2.2892576064
C     0.182946765     -2.9103094022     -0.8400211334
C     0.7263208566     -2.7391978137     -2.1026248042
C     -1.9201960009     -2.135316018     0.2409948383
C     -1.2658159131     -2.6228664515     -0.9050160461
C     -3.2040740023     -0.1302834498     1.0067629062
C     -2.953899546     -1.1713207434     0.001864213
C     -2.3883157181     2.1823337229     0.6164398957
C     -3.3441200648     1.1205678717     0.3409268711
C     -0.5741956955     2.9919763062     -0.7774675449
C     -1.9150000162     2.6471310503     -0.6632239377
C     1.4967098994     2.1976728984     -1.5526926848
C     2.1099341366     1.0188650469     -2.0754353397
C     0.170652347     2.5853117594     -1.9690189595
C     1.4665392261     -0.9738289212     -3.376625748
C     1.502407749     0.4349025729     -3.2468202727
C     -0.3610430023     -2.3348804255     -3.0046914274
C     -1.5682869826     -2.162310531     -2.2374666026
C     0.101103084     -1.3482828269     -3.8526171859
C     -3.1242471636     -0.5619303731     -1.2854821625
C     -3.3468054482     0.8511138957     -1.0426952689
C     -2.5371090852     1.8231781706     -1.7176564252
C     -2.3793947403     -0.9861096235     -2.4323458219
C     -0.4657376167     1.930963316     -3.0337697634
C     0.2489799717     0.9508865832     -3.7450563532
C     -0.6503603307     -0.1620132299     -4.0148702032
C     -1.8412091394     1.4365925628     -2.8438579526
C     -1.8774770483     0.0475738757     -3.3294252189


