56

 C     1.4323989178     -0.0104935286     3.6591004662
C     2.6194370951     -0.1959627799     2.9704186256
C     2.5587061036     -1.4951178287     2.2955295625
C     0.5709013212     -1.1788538991     3.3892057675
C     1.2639193305     -2.0752733641     2.5114684384
C     -0.7190015964     -0.7377354572     3.0984118735
C     0.6463730337     1.1765687857     3.4923711877
C     -0.7314956767     0.733253819     3.2430116754
C     1.1724198544     2.2424401672     2.7557723194
C     3.0843152905     0.793823271     2.033632824
C     2.4412835326     2.0509687208     2.030384855
C     3.0307371891     -1.3068932253     0.9870863271
C     3.3496895637     0.1178117827     0.7723887721
C     2.4393904982     -2.052012087     -0.0397586218
C     0.5465486736     -2.6797009347     1.4368403945
C     1.273623278     -2.8427790401     0.20861491
C     -1.5253355883     -1.4024670042     2.1032650874
C     -0.9027484507     -2.4704367098     1.3413708374
C     -2.6218845542     -0.6305531448     1.5073641125
C     -1.5674436022     1.4668898453     2.4355060193
C     -2.5537511259     0.800917832     1.6074565264
C     0.2762427173     3.0111182728     1.879232794
C     -1.0618590533     2.6323286094     1.718689651
C     2.3078676127     2.7021427692     0.7775260237
C     0.9855337539     3.349234568     0.7001179709
C     3.0486602466     0.7120755432     -0.4819878004
C     2.5754396132     2.079147121     -0.4460437624
C     2.368293551     -1.5235494295     -1.394388647
C     2.6155955789     -0.1365300936     -1.6165614638
C     0.6018287454     -3.0070890392     -1.0656225655
C     1.3132928022     -2.2312805208     -2.0753892229
C     -1.5453791545     -2.8740540707     0.1139837514
C     -0.7667351077     -3.1229998719     -1.1175252646
C     -3.2827757052     -1.1448926358     0.3526098528
C     -2.7727426801     -2.3331818707     -0.2655334032
C     -3.6682207202     -0.2746061545     -0.7215026856
C     -2.7191417143     1.6057970131     0.4366314327
C     -1.6785652784     2.6236975315     0.4158960593
C     -3.1941992464     1.0461648563     -0.7551891966
C     0.4544423891     3.1893847859     -0.5843509439
C     1.5057442475     2.5134893885     -1.3635929736
C     -0.9271408262     2.8296909378     -0.7787881015
C     1.8384889592     0.4679431421     -2.6685475747
C     1.1754342782     1.7631101711     -2.4400978724
C     0.592286916     -1.6257747421     -3.1113839808
C     0.9344580139     -0.2867619399     -3.4239406554
C     -1.5215021077     -2.5724393436     -2.2508570823
C     -2.7912351447     -2.1569111511     -1.7313693098
C     -3.3058640518     -0.898918015     -1.9966108713
C     -0.8701948689     -1.7603781116     -3.1845277428
C     -2.4708187207     1.284027257     -2.0192116569
C     -1.2964814725     2.0827280021     -2.0037647438
C     -0.2271138867     1.6665373993     -2.8854409305
C     -0.3229542426     0.4638827658     -3.5934507393
C     -2.5568666043     0.0474813443     -2.7819057258
C     -1.4219019363     -0.4250096785     -3.476544559


