56

 C     1.4439678998     0.0058023098     3.9640972374
C     0.6767250432     -1.1819743476     3.8427563363
C     1.3107459447     -2.0989213384     2.9182170696
C     2.4918384493     -0.0835780334     2.9837398857
C     2.5302743457     -1.4294681735     2.464429369
C     2.3687872522     0.9851748802     2.0627995324
C     0.5969097853     1.0951136117     3.6063049531
C     1.1775089449     1.7516960886     2.4740742904
C     -0.7088345729     -0.8297024589     3.6753593627
C     -0.7603039172     0.6299064841     3.4860410585
C     -1.507450655     -1.6291388408     2.8572903761
C     0.5100657647     -2.8157789681     1.9575470472
C     -0.8988306741     -2.6151590482     1.950822256
C     1.1001214702     -3.1243066797     0.6699393413
C     2.9765116448     -1.5993597849     1.1623366447
C     2.3943355022     -2.6370422924     0.3672807713
C     2.673048373     0.8122285804     0.6628625252
C     3.147422758     -0.4606361367     0.2645416721
C     2.0200347101     1.6902467158     -0.3188935412
C     0.382088913     2.361394839     1.498812211
C     0.9718255888     2.5742547999     0.1592034531
C     -1.6186587524     1.217301051     2.521353669
C     -1.0756997724     2.2474105822     1.638177836
C     -2.5845722621     -1.021508735     2.1621239776
C     -2.6494799692     0.3621473955     1.9655573952
C     -1.6361736024     -2.5690305197     0.7002281573
C     -2.7063375647     -1.6579101723     0.8500293513
C     0.3364945611     -3.0860105007     -0.5752897735
C     -1.0149545114     -2.6672437064     -0.5945912269
C     2.4786429917     -2.2877125631     -1.0212207353
C     2.8731394068     -0.9281446082     -1.089547001
C     1.2491671998     -2.6658965917     -1.6346612162
C     2.0526490665     1.3311012985     -1.7445500934
C     2.3437315864     -0.0645609992     -2.0926066078
C     1.2491418986     2.0917924518     -2.6682880005
C     0.1518916876     3.2488659577     -0.7903634046
C     0.3631309087     3.0741948085     -2.1807132209
C     -1.8506522835     2.6415631265     0.5171051145
C     -1.2722500923     3.3012108249     -0.559467786
C     -3.1302526236     0.5643021917     0.5935288337
C     -3.0276995521     -0.7081144173     -0.1276097214
C     -2.8460942102     1.7149719721     -0.0630619316
C     -1.5199467292     -1.8209679939     -1.7096066119
C     -2.4929163064     -0.7632882483     -1.4594710873
C     0.7864166368     -1.9172700712     -2.6830337769
C     1.5064010939     -0.7121839877     -3.0775413935
C     -0.6427265391     -1.6237228715     -2.8261044682
C     0.54288697     1.4133200227     -3.758109353
C     0.6067649259     0.0477054042     -3.8550498107
C     -0.762318524     -0.5019494926     -3.6595669659
C     -0.960833169     2.8725711328     -2.8290833845
C     -1.9195878899     2.8726736341     -1.8046017265
C     -2.7104033435     1.7290677126     -1.5173895895
C     -2.4946896149     0.4935034451     -2.2414203193
C     -0.8784347744     1.7910957135     -3.68665213
C     -1.6425694082     0.5799645565     -3.4080648406


