56

 C     1.5054440932     -0.0674741666     3.905303135
C     0.7060150968     -1.2057700421     3.7211369529
C     1.305164313     -2.0521715329     2.7030538897
C     2.5744044447     -0.0828682364     2.9551143458
C     2.5640692097     -1.3849280375     2.3263304705
C     2.3801104603     1.0513838338     2.122708933
C     0.6863105021     1.1066344395     3.7479653513
C     1.1944595436     1.784069532     2.608230651
C     -0.6822123851     -0.7886329964     3.6666261071
C     -0.6933414736     0.6909255636     3.7540037103
C     -1.4930088629     -1.4092676842     2.7336902971
C     0.4913803292     -2.6273586016     1.6947760739
C     -0.9356479624     -2.3681534929     1.7804679277
C     1.0768725822     -2.8851762161     0.3576041004
C     3.0115763333     -1.4655464558     1.0414432945
C     2.4111998931     -2.410888199     0.1026204613
C     2.678731937     0.99333678     0.7263896799
C     3.3117433085     -0.2371820038     0.2934268419
C     1.8918687028     1.7668980756     -0.222358204
C     0.3162612514     2.4226515503     1.6775493584
C     0.6795309709     2.4941583872     0.2606668565
C     -1.5819252767     1.402963241     2.9864840241
C     -1.0791922855     2.4337609588     2.0636673638
C     -2.567171787     -0.6716498691     2.0662389469
C     -2.6690952349     0.7144778424     2.2798598674
C     -1.7263626655     -2.264286959     0.6084257766
C     -2.718655697     -1.199691884     0.7399549834
C     0.2117706607     -2.9544603016     -0.7773027326
C     -1.1936365069     -2.5744371738     -0.6519281323
C     0.6188590462     -2.5568929893     -2.0952650536
C     2.7657892242     -1.9648352202     -1.1843710866
C     3.2693502912     -0.5914006806     -1.0536180649
C     1.8943509673     -1.9983041359     -2.2914023687
C     2.0092057128     1.4308718609     -1.6429042526
C     2.6725593591     0.2066034263     -2.0399294466
C     2.002305932     -0.7063508488     -2.980221353
C     1.042314864     1.9224831702     -2.5749062347
C     -0.3640559466     2.8423046619     -0.6919060505
C     -0.1624024316     2.6235733475     -2.089669364
C     -2.0555070211     2.6028576757     1.0717017387
C     -3.0368798282     1.5156120653     1.180332134
C     -1.7511819858     2.8231834515     -0.2701773437
C     -3.0515793938     -0.3871062509     -0.3870233248
C     -3.2559751439     1.0110117868     -0.1152060299
C     -2.6920303595     1.9950636496     -1.036682762
C     -1.644776142     -1.9078601467     -1.8189117726
C     -0.5290849801     -1.9415368932     -2.7638157705
C     -2.5399445192     -0.7673128287     -1.7252957459
C     0.9642914994     -0.2419336276     -3.7499664684
C     0.6889240275     1.1722642239     -3.7274746915
C     -0.3505320456     -0.9227228657     -3.682012229
C     -1.2498019388     2.2778662321     -2.9353822734
C     -2.4018946145     1.6536654592     -2.3239143695
C     -2.4023914848     0.2339588298     -2.7194003543
C     -0.7303572786     1.3518717013     -3.8937552359
C     -1.3662192644     0.1117486141     -3.7309725373


