56

 C     1.4542289846     -0.2590649736     4.2931771586
C     0.6337254249     -1.3479832314     4.1487538579
C     1.1910778166     -2.3215177005     3.2188442423
C     2.5878688843     -0.4459516798     3.3672210469
C     2.4525381826     -1.77162392     2.7477769886
C     2.6120139385     0.6580706065     2.5188061553
C     0.6885765056     0.9009220433     3.8708072919
C     1.4175348625     1.5166182494     2.8548205188
C     -0.7085082854     -0.9497510603     3.7102436922
C     -0.6950217635     0.4727819616     3.5358837834
C     0.1770970488     -2.6093314681     2.2869537552
C     -1.0163237476     -1.7479986281     2.5984726825
C     0.4890588867     -2.8631229522     0.916642493
C     2.7385747944     -1.9050335101     1.3977398477
C     1.844150736     -2.6507728339     0.5322683593
C     2.9890018776     0.5402125214     1.1233337678
C     3.1746728077     -0.7657875587     0.5914925228
C     2.5193286633     1.5433802683     0.2272378905
C     0.7533316595     2.2541807838     1.8320382134
C     1.4594336572     2.4880622551     0.6335294306
C     -1.3561225317     1.0361601122     2.4401597781
C     -0.7240627452     2.1883679373     1.7714959037
C     -1.8092112955     -1.2360061251     1.5496222974
C     -2.1595091099     0.1731900641     1.5751448688
C     -0.5713677825     -2.7163556162     -0.0924626759
C     -1.7944569704     -1.9390366198     0.2661492915
C     -0.2035180529     -2.7844576711     -1.4448158139
C     2.129662417     -2.2744471408     -0.8265927453
C     2.8693548101     -1.0298647837     -0.7952475211
C     1.1921219067     -2.5070217923     -1.8136524779
C     2.3605216296     1.3221815536     -1.1621336425
C     2.5176247969     0.0106756502     -1.7134367437
C     0.7973188271     2.9372033898     -0.5389851233
C     1.3055616824     2.2109402934     -1.6628285707
C     -1.3554793186     2.7138266643     0.6621634665
C     -0.5877848838     3.241743521     -0.4792569051
C     -2.8559892674     0.7501061355     0.4471062061
C     -2.5760721642     2.1257457627     0.1161955533
C     -2.61166364     -1.4382774872     -0.742236554
C     -3.2706184386     -0.1262861646     -0.6160477804
C     -1.0428785383     -2.2082628281     -2.4876876817
C     -2.2902571037     -1.6363671786     -2.1517650487
C     1.1503044993     -1.6260071147     -2.9267616264
C     1.6917263836     -0.3282588554     -2.8423988666
C     -0.2111430513     -1.535330997     -3.4233442367
C     0.4590387278     1.8706749129     -2.7705604615
C     0.661411487     0.589982099     -3.3649088853
C     -0.4803104281     -0.1992536703     -3.8120405192
C     -1.3706382945     3.1438405476     -1.6199270651
C     -2.6767506735     2.5660609799     -1.2313729757
C     -0.903901224     2.4327803579     -2.7835944084
C     -3.4457209     0.3767626397     -1.9324685929
C     -2.731680642     -0.4981741742     -2.8547576513
C     -1.8028504203     0.300902267     -3.6354519024
C     -3.0715332392     1.701575125     -2.2412919097
C     -1.9934873962     1.6543990133     -3.2680526787


