56

 C     1.4347828572     0.1194367663     4.1866200842
C     0.6064768724     -1.0693337283     4.0800496806
C     1.3017514957     -2.0292654098     3.3323479914
C     2.5798695179     -0.0717811335     3.2964816972
C     2.5112775502     -1.3636041045     2.7801260637
C     2.6301020439     1.0042909184     2.3408608537
C     0.7000109528     1.154521363     3.6066508751
C     1.4725105625     1.8312418067     2.5859529078
C     -0.7213876033     -0.6814481555     3.6233832628
C     -0.6632523251     0.7340298546     3.2682792545
C     -1.4039009378     -1.5233361005     2.7620968819
C     0.6717714872     -2.727870653     2.267660821
C     -0.7200178472     -2.6462229481     2.123461302
C     2.5376991999     -1.6168599817     1.366663924
C     1.4778063515     -2.5455517336     1.0529049738
C     2.9876958296     0.7700123351     0.980670742
C     2.8719261358     -0.5856827821     0.431210076
C     2.6903971194     1.8541583293     0.1177812795
C     0.8164151309     2.523756183     1.5506696328
C     1.6155955382     2.7860247919     0.4089890435
C     -1.3236820271     1.2567331874     2.136875778
C     -0.6497570645     2.3468508497     1.3743472295
C     -2.3085764446     -0.9728327194     1.7799729756
C     -2.3001289116     0.4066547194     1.4373034864
C     -1.3029293219     -2.8357400506     0.8356982541
C     -2.4471943549     -1.9515958129     0.7318175563
C     0.912027037     -2.6304622239     -0.2407071982
C     -0.5064959641     -3.0223101596     -0.3398649169
C     2.4539436679     -0.7674957948     -0.9534565826
C     1.5210884697     -1.8267204185     -1.2968710286
C     2.6923510357     1.6609526944     -1.2794059131
C     2.5174626043     0.3843275939     -1.8282748237
C     1.0287270779     3.2127625765     -0.8373701927
C     1.741065535     2.588202147     -1.9031469691
C     -1.1972870077     2.7496166886     0.1645953792
C     -0.3757035967     3.2878759763     -0.9291450514
C     -2.7998276155     0.7905767284     0.10722
C     -2.3392107337     2.0302096764     -0.4457039401
C     -2.9786937706     -1.6148362421     -0.5036959997
C     -3.2293618159     -0.2053961862     -0.8222957773
C     -1.1798915846     -2.8616924461     -1.5858859088
C     -2.4941729699     -2.2832668162     -1.6468621504
C     0.7915135226     -1.7201146144     -2.5415222301
C     -0.46153414     -2.31734036     -2.6918329993
C     1.6059551966     0.5536557795     -2.971039439
C     1.0867134115     1.9353197631     -2.9609805126
C     0.7817534003     -0.4723122323     -3.3263497937
C     -0.9869996748     2.8917439435     -2.1406055233
C     -2.2334239734     2.1850918935     -1.8350175598
C     -0.3078235326     2.150503753     -3.1411654308
C     -3.0152952959     -0.0597621085     -2.2508300806
C     -2.5490137205     -1.3359598149     -2.7502803972
C     -1.3460866891     -1.3946397187     -3.4420502573
C     -0.6074627685     -0.2214985851     -3.7710652907
C     -2.4116495528     1.1080098065     -2.7482748262
C     -1.1779283593     1.0383728995     -3.5469912031


