56

 C     1.5115273227     0.0401606455     3.8477035042
C     0.6830632549     -1.169461929     3.7409814975
C     1.2460057595     -2.0435893166     2.7660924016
C     2.5349960545     -0.0358987007     2.9415353684
C     2.5037817629     -1.3895082696     2.3714478519
C     2.4540893781     1.1197101434     2.0184982788
C     0.6620896041     1.1711140391     3.5056956652
C     1.2463778239     1.8513746337     2.3899746826
C     -0.6609956096     -0.7553361705     3.6371022271
C     -0.6705076959     0.7193441565     3.4224716105
C     -1.5136829379     -1.5277713441     2.844099672
C     0.4138867384     -2.6320393707     1.7323325159
C     -0.9829014641     -2.4603997316     1.8694965048
C     0.9574642922     -2.8357861775     0.3606830887
C     2.9479031783     -1.5314245629     1.1086040337
C     2.3241840516     -2.4778112781     0.1742846061
C     2.8244524309     0.9728643989     0.6823401504
C     3.3699392447     -0.3410371465     0.3122722122
C     2.1542400517     1.7738744635     -0.357663755
C     0.43623563     2.4316569562     1.3944257605
C     1.0223967427     2.5999434586     0.0536726244
C     -1.5543861543     1.3201827632     2.4646357985
C     -1.018363028     2.3056622837     1.5468390016
C     -2.6242617314     -0.8781413496     2.2426959541
C     -2.6757461638     0.509954975     2.0325994302
C     -1.8680572498     -2.4161421122     0.6926970523
C     -2.9354470831     -1.5450425601     0.9866006405
C     0.069099859     -2.7842614253     -0.82466372
C     -1.3552644524     -2.4782816132     -0.6422812379
C     0.6343684139     -2.4525910668     -2.1008839508
C     2.8182175769     -2.1138600868     -1.0944090256
C     3.3885703798     -0.7369444721     -0.9952341642
C     2.0174499436     -2.1370109969     -2.2063676198
C     2.2463054738     1.3438138129     -1.7551321961
C     2.845292413     0.0648858743     -2.0620182994
C     2.1421788154     -0.8344452101     -2.9009770248
C     1.2398679621     1.7783290972     -2.6872384209
C     0.1706943248     3.1442502077     -0.9518098739
C     0.3260607403     2.7713085831     -2.3086959243
C     -1.829859219     2.6684229653     0.4164891024
C     -1.2549125487     3.2287992179     -0.7101500099
C     -3.2959942399     0.7203222683     0.7184910083
C     -3.4101885638     -0.5879262221     0.0597048918
C     -2.9549803208     1.8116879457     -0.0297636052
C     -2.0551281084     -1.7070384258     -1.635495247
C     -3.0473114165     -0.7218412011     -1.2781624267
C     -0.0588457464     -1.5536509676     -3.0283675786
C     0.8908854785     -0.5254285682     -3.4721545665
C     0.5045310515     0.8120303414     -3.5234007576
C     -1.3693847237     -1.1862512997     -2.8050343378
C     -1.0008381237     2.4525938742     -2.8767338885
C     -1.9496419903     2.7221087261     -1.9103574048
C     -2.8981716471     1.7359727189     -1.4955685944
C     -2.8586792797     0.467428332     -2.108189451
C     -0.9043391017     1.1568077957     -3.4792651232
C     -1.8382671739     0.1643168679     -3.0944488924


