56

 C     1.4845478703     0.0197681302     3.8991172848
C     0.6910830607     -1.1306376041     3.7155568967
C     1.218371372     -1.8157133029     2.5678834562
C     2.572204511     0.0501709381     2.9566110715
C     2.4088136944     -1.0782434668     2.1031203369
C     2.633603621     1.3566784252     2.3753950177
C     0.6872307869     1.183408078     3.683614735
C     1.3941029467     2.0582297257     2.7898488551
C     -0.6823927855     -0.6667023214     3.6197978842
C     -0.6711841263     0.7834525775     3.4314183849
C     -1.5523554827     -1.4092765166     2.8912741748
C     0.3529791852     -2.4707414984     1.6439477304
C     -1.0375468534     -2.525610027     2.0603865965
C     0.6554170768     -2.5055407625     0.2148553475
C     2.6756697999     -0.9883902396     0.7152963411
C     1.876705403     -1.7966485703     -0.2371125943
C     3.0564576696     1.455142004     1.0644877279
C     3.2356284318     0.2611381613     0.2626900587
C     2.4883034603     2.4569119367     0.165497925
C     0.6577660935     2.7011661491     1.8071585597
C     1.2591485918     3.0192632112     0.524184717
C     -1.4056978314     1.3394768667     2.328363176
C     -0.74870504     2.3642014572     1.5726947232
C     -2.6176804271     -0.7924750915     2.1305371667
C     -2.4410065289     0.5470779584     1.6462976739
C     -2.017967491     -2.8409686861     1.147640857
C     -3.1003059423     -1.8176642845     1.2706733428
C     -0.4190921928     -2.8031603261     -0.7434731707
C     -1.7554295333     -3.0419261809     -0.2325344938
C     -0.3175025417     -2.299261395     -2.1231252106
C     2.0154521484     -1.491535543     -1.6000374419
C     0.9321694143     -1.7446224847     -2.551908595
C     3.1596981066     0.6391952148     -1.117290754
C     2.6990800582     2.0235614092     -1.1953546213
C     2.7322323827     -0.3006808216     -2.0579634605
C     1.7824980807     2.3806872217     -2.1963730721
C     0.1930643764     3.0625001502     -0.4538902728
C     -1.0210548248     2.5524604665     0.1856004609
C     0.4558414478     2.8300834985     -1.7855258828
C     -2.7973609264     0.8230610598     0.238297924
C     -1.986795633     1.7784103962     -0.5327678802
C     -3.5802156437     -1.5465868278     0.0306638516
C     -2.8934672276     -2.4695114834     -0.9213628016
C     -3.477432278     -0.2069111954     -0.508438003
C     -1.4870594257     -1.7640189408     -2.7756652426
C     -2.7371229744     -1.7923217608     -2.0921925297
C     -3.1600940707     -0.3914692386     -1.8842878165
C     -0.5479964947     2.1272343002     -2.5858573129
C     -1.7466618269     1.5973318589     -1.9711068563
C     -1.4026168817     -0.4537910705     -3.3909758465
C     -2.2873781706     0.426498119     -2.6018994084
C     0.9843870671     -0.7545177536     -3.5555049113
C     2.0642015138     0.1685239627     -3.2287435275
C     1.5737669899     1.4799387233     -3.284609928
C     -0.1912819753     0.01889727     -3.8412818643
C     0.1429799788     1.3944581639     -3.5736287491


