56

 C     1.3362466193     -0.0115408822     3.6585862463
C     2.5430025279     -0.2043654417     2.9817981523
C     2.5375563672     -1.5462757973     2.3982568379
C     0.492547507     -1.1635238767     3.3306716125
C     1.2359478905     -2.0979415637     2.5253891183
C     -0.7949311371     -0.733730531     2.9987799185
C     0.5589871331     1.1597118139     3.4713926497
C     -0.8332092043     0.7114952919     3.2795304839
C     1.0355462128     2.1662226131     2.6116175213
C     2.9291619817     0.6955443481     1.9384921365
C     2.1866718207     1.8758372353     1.7626365936
C     3.1567328862     -1.5024097159     1.1281298766
C     3.3209847528     -0.0937738062     0.7684796128
C     2.7241026837     -2.4218394242     0.1761040253
C     0.5832283021     -2.7232649791     1.4091189939
C     1.4335095573     -3.0929692983     0.3290424325
C     -1.5102314418     -1.2940782313     1.8759015011
C     -0.8424054121     -2.3791286184     1.1305453866
C     -2.5522374689     -0.4797869351     1.2580959963
C     -1.7279234727     1.4901019265     2.6268323077
C     -2.7257591858     0.8773021178     1.738302612
C     0.0955577538     2.9401306205     1.8295954645
C     -1.2910079032     2.7527941598     2.0045042762
C     1.8602286113     2.3301595469     0.4345657598
C     0.6059351886     3.0643515509     0.4859983814
C     3.0106439664     0.3345462238     -0.5498010571
C     2.2432733678     1.5835049864     -0.7220194641
C     2.8262380954     -2.0531944511     -1.1907755098
C     2.8792813981     -0.6976743352     -1.5584449603
C     0.8966022173     -3.3078358095     -1.003968819
C     1.7708767905     -2.7091129097     -1.9524818939
C     -1.3479328993     -2.696401466     -0.1446888645
C     -0.4909266128     -3.2103492386     -1.2080502073
C     -2.9804599184     -0.7624316305     -0.1176387443
C     -2.4161760959     -1.905360952     -0.7614003793
C     -3.383093613     0.3192430256     -0.9879980587
C     -3.1624636361     1.8960178916     0.871906069
C     -2.1611906559     2.9874134831     0.9330880881
C     -3.4514282865     1.6458364683     -0.4673929546
C     -0.2716254855     3.1345668821     -0.6409560986
C     -1.6975901624     3.210962846     -0.395080571
C     -2.5996393498     2.4985914146     -1.2648436035
C     1.3935616562     1.7117192883     -1.8626885471
C     0.1632156336     2.4533326234     -1.8268620833
C     1.957801147     -0.543668698     -2.6984360102
C     1.2833944285     -1.8181736441     -2.9416875987
C     1.2506902375     0.6305050638     -2.8291640991
C     -0.9495881098     -2.6262779578     -2.4179878826
C     -2.1829085772     -1.9010069736     -2.1564585313
C     -0.1024390633     -1.8261973509     -3.229892449
C     -2.7881755748     0.421344641     -2.3126733348
C     -2.1494723435     1.7421347183     -2.3746000254
C     -0.7862194027     1.7852642553     -2.702234873
C     -0.1327608935     0.6305735443     -3.2973850803
C     -2.162919539     -0.6791473783     -2.875646615
C     -0.8168112992     -0.5677466741     -3.4661037288


