56

 C     1.3483862221     -0.2693142433     4.7734563086
C     0.582728818     -1.338976501     4.4408185853
C     1.2465450293     -2.0445421638     3.3287601189
C     2.5951878497     -0.2817375731     3.9573840563
C     2.4728950711     -1.3354375375     2.9685183529
C     2.7680275858     1.0361654481     3.5271287031
C     0.5983118305     0.9611877938     4.4326552441
C     1.4577527636     1.7925885881     3.7569637763
C     -0.7108433519     -0.8648420372     3.9136912621
C     -0.6720655638     0.5736116131     3.7922801199
C     0.2917118499     -2.3230595481     2.3566663574
C     -0.9600762926     -1.5997486575     2.7578644397
C     0.6135993855     -2.323974715     0.9669685264
C     2.7033837952     -1.0670380281     1.5627506439
C     1.8401200095     -1.706836438     0.5420193909
C     3.1300871604     1.2889396721     2.2188007642
C     3.1889953006     0.2511650018     1.2313084075
C     1.0944922342     2.4154684341     2.5114430312
C     2.2459488164     2.3364508926     1.6680190848
C     -1.0856341048     1.1894893694     2.5629696593
C     -0.2076230361     2.1878059753     1.9080284858
C     -1.7110965303     -1.030621211     1.7301351562
C     -1.8751898022     0.3834497595     1.6466269507
C     -0.5120250729     -2.4068540253     0.055362725
C     -1.7488808172     -1.8033011845     0.5100347363
C     -0.293096162     -2.4780685858     -1.3582952596
C     1.8192833562     -1.2343507735     -0.8371212135
C     0.9289608542     -1.8186975466     -1.8248676188
C     2.7544341787     0.854057699     -0.0003539093
C     2.1134766211     2.1316209243     0.3118377387
C     2.2566606392     0.1271406006     -1.0746539575
C     -0.3287194677     2.3791253393     0.480164374
C     0.8776970498     2.4055577731     -0.333181041
C     -2.3163638551     0.9080802387     0.3561198616
C     -1.5485911605     1.9871677476     -0.2324093527
C     -2.7098894684     -1.3998254304     -0.4111869146
C     -3.0180640511     0.040456616     -0.5116342015
C     -1.4512394063     -2.4774697114     -2.2147018689
C     -2.6677622216     -1.9276363508     -1.7030406076
C     -1.3681534192     -2.022412946     -3.5743473253
C     0.8964293175     -1.2077551133     -3.1230830619
C     -0.1914145691     -1.4465213381     -4.0643876426
C     1.6227646708     0.9050072373     -2.1262778786
C     0.8331007763     2.0556409328     -1.7102840368
C     1.2219093229     0.1964204086     -3.2633651579
C     -1.6132678764     2.1635106714     -1.6317119429
C     -0.3801677854     2.3175852168     -2.4119654133
C     -3.2264167939     0.3223773937     -1.9144895555
C     -3.179407935     -0.932230671     -2.6470678925
C     -2.4850626836     -1.0721054473     -3.8454911934
C     -2.5487740035     1.4395944242     -2.4881075337
C     -0.5006866032     -0.2341593831     -4.8024146302
C     0.2682196603     0.7768283036     -4.1988782728
C     -0.5906535546     1.82289349     -3.6988193466
C     -1.9010108387     0.0732680305     -4.4672621957
C     -1.9689337416     1.3248615554     -3.7993778267


