56

 C     1.1738901836     -0.0050430339     3.7384744046
C     2.2903167687     -0.3398623     3.0193608326
C     2.201907317     -1.7616257389     2.5776788476
C     0.2941560649     -1.214120619     3.7119332152
C     0.8858927843     -2.2254627181     2.8438725341
C     -0.990897792     -0.8002302765     3.5555757218
C     0.3789913638     1.1167855919     3.3332081667
C     -0.9975174718     0.6667114001     3.4343446894
C     0.7661573202     1.9254378758     2.2202230847
C     2.7741286915     0.4521422446     1.9424448215
C     2.0285107257     1.5980314647     1.517702438
C     2.7924411371     -1.8503420005     1.3179444802
C     3.2718100725     -0.4979854853     0.9467892409
C     2.1396705978     -2.616449231     0.3323100993
C     0.0993382697     -2.7921388767     1.7794563182
C     0.8085009824     -3.0966130782     0.5697503084
C     -1.8448748873     -1.3507645342     2.5237238612
C     -1.3392421122     -2.3875873036     1.6517358506
C     -1.9288234329     0.9940317278     2.4732484643
C     -2.5573848488     -0.2499461324     1.9728945318
C     -0.3130100027     2.5860817898     1.4637906405
C     -1.6953454475     2.095416898     1.5856546446
C     0.0336902031     3.2238762172     0.2384841485
C     2.2132555491     2.016873449     0.1199506755
C     1.2459800785     2.8632388175     -0.4648645162
C     3.3769194211     -0.157312903     -0.3726360678
C     2.9598619434     1.1714255808     -0.792288683
C     2.2586297031     -2.2553688287     -1.0743559982
C     2.9695818681     -1.1053386294     -1.4253460725
C     0.1454867467     -3.1343507597     -0.7282579746
C     1.0116707722     -2.5604209371     -1.7406217739
C     -1.9632516776     -2.4887695161     0.3850992879
C     -1.2247943881     -2.9467946305     -0.8034357687
C     -3.1135359394     -0.2918784426     0.666027201
C     -2.9207645538     -1.5046974159     -0.0772736784
C     -2.5794764075     2.1564802913     0.4701623135
C     -3.2088649106     0.9394674606     -0.0401928324
C     -0.9622106287     3.4632410152     -0.7612122368
C     -2.2325536793     2.9370655629     -0.6626702729
C     0.9171917189     2.7813079468     -1.9088212879
C     -0.4250725261     3.1132048901     -2.0851496278
C     2.6064584304     1.0842088556     -2.1650502494
C     2.5026500235     -0.3201250563     -2.5097085671
C     1.4879272466     1.7520417245     -2.692396644
C     0.4789898335     -1.6964386932     -2.7669166642
C     1.2534020616     -0.5423736991     -3.1359251795
C     0.6148822365     0.7649237292     -3.306068369
C     -1.7572044712     -2.2813973502     -1.9381848768
C     -2.8479077247     -1.44042934     -1.5063423337
C     -0.9472849516     -1.5655168678     -2.8485170441
C     -3.1050259602     0.9745407535     -1.5043136058
C     -2.5183080061     2.184052023     -1.896843066
C     -1.3317855627     2.1869737311     -2.6961604889
C     -0.8095736691     0.9178168116     -3.2423007089
C     -2.7844669314     -0.2271665318     -2.1994132545
C     -1.5831121522     -0.2588269429     -3.0465730094


