56

 C     1.1499348393     0.108299987     4.1175512292
C     2.357635538     -0.2151285115     3.5336961825
C     2.2191308815     -1.5338021686     2.8325908839
C     0.2424020933     -1.0403439005     3.8855246795
C     0.8778483857     -1.9392778862     2.9296684479
C     -0.9953622291     -0.5347353551     3.5975514842
C     0.4518705589     1.3128022759     3.7099009131
C     -0.9231474129     0.9312780772     3.5875381022
C     1.0286592391     2.1485442885     2.6597400472
C     3.0120739512     0.6601500138     2.6405003764
C     2.3283503625     1.7968429402     2.131188382
C     2.8788037059     -1.4242262181     1.5762487382
C     3.4712525579     -0.1301930878     1.4975372798
C     2.2786065101     -2.0285028134     0.4090818658
C     0.1587013603     -2.3847569683     1.7471448646
C     0.9389298298     -2.6409702275     0.5544607185
C     -1.7480319622     -0.9576752105     2.4433428458
C     -1.235909606     -1.9620980014     1.5606246678
C     -1.7448261919     1.3727692001     2.5415126926
C     -2.3642401902     0.200588972     1.880011015
C     0.1190905347     2.7169984133     1.7119746887
C     -1.274374866     2.3933120071     1.7087601247
C     0.4722943872     2.9519994202     0.3081152936
C     2.5697080337     1.8241047975     0.6711416645
C     3.2982935259     0.6267662077     0.320697986
C     1.6545369393     2.3698732661     -0.2602983457
C     2.5951463193     -1.4387489341     -0.8335791354
C     3.011046169     -0.0481730738     -0.8779524507
C     1.8157617844     -1.6932954553     -2.0267186832
C     0.2367968589     -2.9513777283     -0.6305574193
C     0.775269365     -2.6264083918     -1.9720891558
C     -1.8730119815     -2.0577455441     0.2652542356
C     -1.1831003761     -2.8322863593     -0.7218798231
C     -2.7961997053     0.2395153897     0.5363195267
C     -2.7779838563     -1.001981049     -0.2088330191
C     -1.7834174855     2.4883157531     0.3568488218
C     -0.7143033138     3.0178638435     -0.4709310199
C     -2.6661104033     1.5274584051     -0.1814996104
C     -0.6992588877     2.733790765     -1.8471187083
C     1.5751742815     1.8061493519     -1.6365204031
C     2.2513258304     0.5696464539     -1.9077056645
C     1.622322372     -0.4653480419     -2.7347122035
C     0.436223833     2.0625711665     -2.4365342265
C     0.4594569806     -0.2244056473     -3.5337154822
C     -0.0742778214     1.1176782628     -3.4550127932
C     -0.2873977663     -2.4965142527     -2.8765811057
C     -1.5236342351     -2.7223322376     -2.1181370877
C     -0.4714332872     -1.3380961269     -3.6984115932
C     -3.0989217141     -0.9325755501     -1.6252246226
C     -2.4863478959     -1.8610825802     -2.5676477826
C     -1.8979391594     -1.0754702599     -3.6782453603
C     -2.8048567975     1.5198391827     -1.6196783241
C     -1.864635437     2.2075532106     -2.4411093345
C     -1.4774069987     1.3241793296     -3.5418149876
C     -3.1656157349     0.3099961946     -2.2767176539
C     -2.3549017131     0.2186644256     -3.5353017315


