56

 C     1.4753907417     0.0741681456     3.8879773647
C     0.7282367889     -1.1124246954     3.7879575352
C     1.3052528464     -1.9288601227     2.7615733826
C     2.4341391474     0.0896714334     2.7918138755
C     2.3851921953     -1.1594028145     2.1282658024
C     2.3333342509     1.2874145185     2.0388082869
C     0.6230331485     1.1886305263     3.6597358034
C     1.2457314868     2.0625717009     2.6877671843
C     -0.6731805335     -0.7041053241     3.5857458601
C     -0.7300810874     0.7541662758     3.4686985486
C     -1.4932167149     -1.4590925295     2.7892596367
C     0.492448783     -2.7957916291     1.963308355
C     -0.9529485751     -2.6658811793     2.0999940681
C     0.9938280475     -3.1586833309     0.692532396
C     2.6168029391     -1.224568801     0.7312206945
C     2.1323180905     -2.4199094416     0.1010979616
C     2.4732501606     1.2855620654     0.6198025249
C     2.721897807     0.0115032054     -0.0569390793
C     1.8302005132     2.4002901179     -0.1146179435
C     0.4324974881     2.8403868573     1.9273967042
C     0.8357966518     3.1992743223     0.5693941209
C     -1.5457123496     1.3878559127     2.4729828725
C     -1.0206510713     2.6123090759     1.9266684841
C     -2.4282446185     -0.8275484255     1.8751558422
C     -2.4036544451     0.5791232974     1.6025884046
C     -1.7717184262     -2.9089239786     1.0030985246
C     -2.6823138705     -1.7702123954     0.8450072392
C     0.1163600988     -3.5104912254     -0.4099613853
C     -1.2638566335     -3.2461579377     -0.2830937377
C     2.016010344     -2.4815426464     -1.2839157867
C     0.7613084005     -3.1342895604     -1.6206850971
C     2.5225847385     -0.06867834     -1.5068087885
C     2.1618675716     -1.325361561     -2.0958741085
C     1.6955184286     2.321399294     -1.5164802484
C     2.105095443     1.1051631725     -2.2353942002
C     0.5514594699     2.8795719856     -2.2127257823
C     -0.3349312793     3.5846370538     -0.1033376521
C     -1.463092066     3.0579783485     0.6870717512
C     -0.5568743732     3.3241152055     -1.4617255776
C     -2.6927037414     0.99341878     0.2184801891
C     -2.2804141697     2.2988990799     -0.189664903
C     -1.8292242124     2.5796272923     -1.5527647803
C     -2.7277262722     -1.4142425216     -0.4981098593
C     -1.9090621313     -2.3785378342     -1.2597334537
C     -2.8047505198     -0.0211021156     -0.8497271362
C     0.1282258078     -2.380423372     -2.6232722546
C     1.1041745176     -1.3944044913     -3.1042946264
C     -1.2502704414     -1.9649433417     -2.4329391098
C     1.3365744797     0.9950205175     -3.4151058778
C     0.3049767435     2.0317353105     -3.33725324
C     0.6798424669     -0.2399566636     -3.7243407911
C     -1.9754002129     1.621516488     -2.5473975807
C     -2.4076021954     0.2933334234     -2.1684330681
C     -1.6389240576     -0.6779105133     -2.979293929
C     -0.9492566457     1.4681393048     -3.5542533434
C     -0.7575389334     0.0459640712     -3.7852600725


