56

 C     1.4871419871     0.1274933263     4.1031580111
C     0.653416897     -1.0746708577     4.1214434039
C     1.364307423     -2.1012289962     3.5002527579
C     2.6028024963     -0.1349313829     3.1838635989
C     2.5946410992     -1.4905472717     2.8966954043
C     2.5433327408     0.8126098073     2.0767050481
C     0.7346744412     1.1353755     3.5303478958
C     1.4481179277     1.7035128693     2.3893970867
C     -0.6628064471     -0.7325370591     3.6053159344
C     -0.6466170365     0.686306374     3.2960696966
C     -1.2816587757     -1.5810709482     2.6731294033
C     0.7775959923     -2.9251269096     2.5013667593
C     -0.5884883298     -2.7417467278     2.1555022176
C     2.7167257525     -1.9608120304     1.5643241471
C     1.7315143909     -3.0294772084     1.3992259872
C     2.7203246408     0.400767755     0.7225327275
C     2.9226059558     -1.0294458528     0.4787823634
C     2.1262029444     1.2423778115     -0.3399306972
C     0.7376769416     2.3492273208     1.4038495512
C     1.2876594157     2.3427737241     0.048715455
C     -1.341882499     1.2285863482     2.2193968134
C     -0.7272705818     2.3515093942     1.5148068306
C     -2.0812451685     -1.0165244108     1.5930764886
C     -2.208074475     0.3735986833     1.3896775533
C     -1.0146882511     -2.920042973     0.7795377025
C     -1.9934911076     -1.8765696004     0.4378788474
C     1.299429516     -3.3675705632     0.1284724145
C     -0.1340675504     -3.3575269603     -0.1949543846
C     2.6244825994     -1.5153544735     -0.8275621108
C     1.9489244827     -2.7521962884     -0.9719882355
C     1.9530145397     0.7435655864     -1.7183285371
C     2.2050351204     -0.6314368935     -1.9193085401
C     1.0542180587     1.4390488405     -2.6835954862
C     0.5586032201     3.0664083104     -0.9275095443
C     0.4902935724     2.7042498633     -2.2938975382
C     -1.4475946274     2.9205979603     0.4921221918
C     -0.7608413127     3.6145341156     -0.5690065978
C     -2.7244970597     0.8477637293     0.1115315452
C     -2.5906477688     2.252928867     -0.1417254145
C     -2.2253793496     -1.4049711787     -0.8714527013
C     -2.804123378     -0.0667137421     -1.024748395
C     -0.2955794317     -2.8640623691     -1.5563008129
C     0.9940021358     -2.5904462865     -2.0460024399
C     1.2908028081     -1.389501204     -2.7573562924
C     -1.366415857     -1.9678318136     -1.9326321476
C     0.2603811841     0.6569975825     -3.5967689075
C     0.2516007047     -0.7748123751     -3.4080664033
C     -1.1177105435     -1.1682186886     -3.0701755173
C     -2.8212686108     0.5195864074     -2.3414059086
C     -1.1061605738     1.0431189499     -3.8792668515
C     -1.9085570203     -0.0180841311     -3.306310725
C     -0.8297500599     3.1775312119     -2.7937547273
C     -1.5669508923     3.7392997035     -1.6949108263
C     -2.7021295874     2.813224569     -1.4543556581
C     -1.6431764033     2.2515812839     -3.4617731339
C     -2.7884562998     1.9388833419     -2.5340893225


