56

 C     1.430764903     0.0018706061     4.1698147067
C     0.6284124707     -1.169957692     3.980444713
C     1.3300763776     -2.1083352662     3.1680969353
C     2.5299237134     -0.1484790759     3.2409428072
C     2.5481004141     -1.4446053946     2.6814659431
C     2.5832464121     0.9628787903     2.332675578
C     0.6582759281     1.0646884057     3.602345033
C     1.3640627803     1.7311858413     2.553683929
C     -0.701613643     -0.8018386782     3.5437642289
C     -0.6631924524     0.6274457892     3.2634400761
C     -1.4605120488     -1.6529975188     2.7065575042
C     0.679777203     -2.7106428016     2.072092417
C     -0.7497838993     -2.695631454     1.9526468581
C     2.5840078792     -1.6040027979     1.2667588107
C     1.4851713635     -2.4631492488     0.8803941826
C     3.0024228466     0.7852232672     0.9982035624
C     2.9298745253     -0.5397241702     0.3838872561
C     2.7236034335     1.9105401316     0.171579826
C     0.6631256088     2.3503402183     1.4519708281
C     1.4932708528     2.6707254449     0.3644836677
C     -1.385495973     1.1878551285     2.1446608441
C     -0.7474935593     2.1114145412     1.2116041124
C     -2.5512948911     -1.0010980338     2.0470492213
C     -2.4669509883     0.3976495853     1.7088715417
C     -3.218324341     -1.6260856225     0.9577454308
C     -1.2424580119     -3.0325817936     0.6680283869
C     -2.5669856109     -2.654843731     0.2774588115
C     0.9165827274     -2.4213890419     -0.4242227528
C     -0.423462025     -2.8757446891     -0.5155227068
C     2.5391252396     -0.6279652617     -1.0265366114
C     1.467861226     -1.5231384781     -1.4444513021
C     2.9026790452     1.8153523228     -1.1921770121
C     2.8126498116     0.5312430652     -1.8364139312
C     0.9767438232     3.071567925     -0.9226788815
C     1.9978593254     2.7496410992     -1.8808017144
C     -1.2797218822     2.2905814816     -0.1505365409
C     -0.4166805623     2.8680538405     -1.2167181437
C     -3.0560810135     0.5920656385     0.3887993564
C     -3.649736664     -0.6250964523     -0.0189190271
C     -2.454981111     1.5213508489     -0.5392706358
C     -2.6043093041     -2.3697342212     -1.1519957923
C     -1.2762453408     -2.4543842018     -1.6243633794
C     -3.3023676054     -1.1284460412     -1.3151651887
C     0.6450811451     -1.1967925802     -2.6199842073
C     -0.7712569173     -1.5674668959     -2.6305072254
C     2.1155904736     0.7430206262     -3.0494525459
C     1.6517668181     2.1746387527     -3.0919484178
C     1.040575151     -0.0650154791     -3.4416579871
C     -0.7272080616     2.589855988     -2.6133539991
C     0.3419056103     2.2039793485     -3.5313329928
C     0.0199611242     0.8463914776     -3.9805630546
C     -2.634092607     1.1836632776     -1.9338897825
C     -2.8435625951     -0.2413434323     -2.2740894557
C     -1.7393599365     -0.5966705756     -3.1197109989
C     -1.8280991964     1.7458398187     -2.9231729769
C     -1.3012280217     0.6180973685     -3.7200293041


