56

 C     1.423707727     0.1636638396     4.1507941258
C     0.6445259521     -1.043104369     3.9321325748
C     1.455122796     -1.9352822463     3.2505424549
C     2.6035781609     0.0917247945     3.2358239311
C     2.6827614336     -1.2029392109     2.7646082216
C     2.5436203619     1.1715112692     2.2995924635
C     0.6758672361     1.2434876863     3.7637704753
C     1.4646273564     2.023876652     2.8159871677
C     -0.6261560059     -0.6574959848     3.3036500547
C     -0.6484270096     0.7806627115     3.2762219039
C     -1.1689502819     -1.3834404028     2.2096251933
C     0.9540622403     -2.7038368752     2.1922072526
C     -0.4271699592     -2.5881672548     1.7763257001
C     2.7768783248     -1.4662242592     1.3786714988
C     1.9602905469     -2.6501660041     1.1421969622
C     2.6041273038     0.9522432615     0.870130687
C     2.7439001941     -0.4197255061     0.3827966383
C     2.0011081891     1.9765663112     -0.0170157896
C     0.7972351846     2.8263259365     1.9728435805
C     1.2866439373     3.0393467962     0.6219433677
C     -1.3085180796     1.4890855474     2.2622025075
C     -0.6841465635     2.7655977031     1.886639705
C     -2.0026985182     -0.676614909     1.2208466229
C     -2.0843735394     0.7757267041     1.2524243154
C     -2.3831348788     -1.3915999267     -0.0151152922
C     -0.7133000121     -3.1529602735     0.5190322898
C     -1.7723083439     -2.6309142354     -0.3405168187
C     1.6408105633     -3.0235761745     -0.1246442153
C     0.3457014458     -3.5847831275     -0.3339494493
C     2.2870461749     -0.7782896345     -0.9802329417
C     1.9262020196     -2.1326479791     -1.2457891214
C     1.6403899739     1.6616099921     -1.4117967202
C     1.7734757473     0.2740784133     -1.8971660035
C     0.6903286883     2.5116405683     -2.086140558
C     0.2261606807     3.7094013844     -0.0306460669
C     -1.0272006335     3.4017568702     0.7280215801
C     -0.0365877535     3.4985389721     -1.3470577609
C     -2.514658795     1.5375404785     0.0426626341
C     -1.9808550717     2.8706933009     -0.1981497573
C     -1.4786427908     3.1851319841     -1.4982451829
C     -2.9221516039     -0.6377443853     -1.1311249001
C     -2.9164007909     0.831740223     -1.1064889475
C     -2.751608842     -1.0656423673     -2.458293197
C     -1.4115375418     -2.9373673012     -1.7250934715
C     -0.0334568183     -3.3294551285     -1.6833023659
C     0.9555335209     -2.4747048493     -2.2620727923
C     -1.8220521086     -2.1050849062     -2.7641659751
C     1.0043909622     -0.1230520212     -3.0290547292
C     0.5348520063     -1.5025225656     -3.1842410458
C     -0.8103666012     -1.4990232092     -3.6121333052
C     -0.2636395958     1.9646606876     -3.0369779685
C     -1.6289317929     2.3259215616     -2.5785644851
C     -2.5813285981     1.2885666364     -2.4486342167
C     -2.4096963736     0.132746505     -3.2480927794
C     -0.0457839119     0.7226543417     -3.5848820623
C     -1.1888659226     -0.1201360452     -3.8721060293


