56

 C     1.1107886189     0.0072884618     4.0860440636
C     2.3638173786     -0.3142782548     3.5849740378
C     2.298022391     -1.6630015325     2.9401200101
C     0.2515828828     -1.1875741714     3.8408498476
C     0.953760839     -2.1074047927     2.9667422663
C     -0.9928820656     -0.7597568495     3.4989801575
C     0.3970403337     1.1541861162     3.5982539663
C     -0.9684949632     0.7124067182     3.434800747
C     0.9644335623     1.9807254037     2.5494863246
C     3.0158114795     0.5521825439     2.6959545909
C     2.3182013293     1.6891877878     2.1538794455
C     3.0308620908     -1.5899148454     1.7273883388
C     3.5188946775     -0.239252504     1.5821628376
C     2.4939070048     -2.2125730604     0.5980755472
C     0.2977358709     -2.5675196101     1.7405695271
C     1.1616527087     -2.7739977219     0.6370102318
C     -1.6906513632     -1.2279727516     2.3257660052
C     -1.0913038853     -2.1457503735     1.4225606979
C     -1.7932920527     1.1077001092     2.4035765391
C     -2.4053013557     -0.0978917618     1.8067352331
C     0.041870093     2.5453877231     1.5253206531
C     -1.3960581375     2.1744891141     1.5280645019
C     0.5586771236     2.8743454756     0.2564367167
C     2.6597317117     1.71846692     0.7407355053
C     3.3080926599     0.4617976138     0.3770118742
C     1.8330817454     2.3348542125     -0.1648846239
C     2.6327514118     -1.6052023145     -0.7111098617
C     2.9173103714     -0.2106945797     -0.8333145142
C     0.6479764906     -2.7921990779     -0.7165179472
C     1.6544966801     -2.1963087763     -1.573724808
C     -1.598356443     -2.1429989983     0.0378486297
C     -0.7286111254     -2.6621260886     -1.0245928995
C     -2.9253673269     -0.0876672012     0.5220463704
C     -2.6688351779     -1.2330107551     -0.3493172205
C     -2.169215816     2.3014167615     0.3723614939
C     -3.0926769496     1.2364756918     -0.0536903536
C     -0.2585373855     2.9847259552     -0.943939326
C     -1.6375154745     2.8676660012     -0.8562791254
C     1.6753147072     1.8448100328     -1.5171614932
C     2.1914461225     0.5593140806     -1.8727741307
C     0.4287238728     2.3405328329     -2.050118222
C     1.2605220209     -1.5666958871     -2.7470555734
C     1.4824699832     -0.121244414     -2.8951877611
C     -1.0321329744     -2.3620095156     -2.4034012866
C     -0.0014417337     -1.8669937933     -3.2686816695
C     -3.0063201659     -1.0628157825     -1.755810671
C     -2.2395649308     -1.6852219352     -2.7499220896
C     -3.3420897055     1.3667003652     -1.421693462
C     -2.3578065855     2.3246169001     -1.9593488908
C     -3.4084499785     0.2608750745     -2.2696900064
C     -0.2772279143     1.6602060399     -3.0970756465
C     0.3295027599     0.4401828572     -3.5691858956
C     -0.5237531824     -0.6718182478     -3.9226611553
C     -1.9061075916     -0.64015894     -3.7559292025
C     -1.7435403971     1.7449677932     -3.0840041041
C     -2.5429442199     0.5485459609     -3.3866842197


