56

 C     1.4650163421     0.0259671366     4.3028879326
C     0.7349406401     -1.21216356     4.1456479459
C     1.6025990357     -2.1279091051     3.5160581553
C     2.6272449527     -0.0428413737     3.4094088491
C     2.7734102689     -1.3475563613     2.9710255398
C     2.5156302927     1.0120940306     2.4121734323
C     0.6676690503     1.0619838136     3.8246392739
C     1.397661451     1.8420877081     2.837381458
C     -0.5289685323     -0.9034445679     3.4816711146
C     -0.6323270235     0.5460889908     3.4163296204
C     -1.009853627     -1.672292314     2.3552764805
C     1.1393781299     -2.9386779464     2.4987365255
C     -0.1718415595     -2.765688335     1.9413354765
C     2.9011105958     -1.6441676849     1.5731534825
C     2.0345013983     -2.7506448349     1.3506723802
C     2.7166404078     0.7821226771     1.0071390838
C     2.9096340376     -0.5973908657     0.5587274704
C     2.1135963104     1.749510441     0.0730206609
C     0.6687641333     2.5390236407     1.9184523038
C     1.1434451718     2.6956876204     0.5546560512
C     -1.3507557113     1.1952691456     2.4055240423
C     -0.7693998332     2.414505267     1.8699686785
C     -1.8812461415     -1.0255819021     1.3442695594
C     -2.1766027891     0.392791142     1.4894071654
C     -2.0476991098     -1.6047478651     0.0139536725
C     -0.0740673204     -3.0114524504     0.514533234
C     1.3291651868     -2.920672352     0.1547736078
C     -1.0362664543     -2.5824705053     -0.3917275302
C     2.4876015196     -0.9598015036     -0.789922054
C     1.7216684769     -2.1903292391     -0.9906000002
C     2.0144310957     1.4308406793     -1.3021481797
C     2.2201335133     0.0677804697     -1.739748785
C     1.0449794754     2.0296847518     -2.1877285079
C     0.0509424025     3.0877699501     -0.2502174383
C     -1.1595075011     2.8892325379     0.6042466944
C     -0.00485725     2.8407664508     -1.6533607187
C     -2.7921695024     1.0721478354     0.4188984195
C     -2.3058312026     2.3945143469     0.0149672406
C     -2.7732712653     -0.9024124148     -1.050741698
C     -3.2162730246     0.4258096722     -0.7908361368
C     -2.4760191664     -1.2251077865     -2.4597818432
C     -0.5818369664     -2.5870650121     -1.7570707446
C     0.8025207931     -2.2786494691     -2.057595593
C     -1.3839146516     -2.0444581536     -2.7674729854
C     1.4760225179     -0.1288260181     -2.9701955575
C     0.7925670842     1.1109269213     -3.296594179
C     0.8148290728     -1.3607954047     -3.1723511545
C     -0.4935138392     -1.3565346195     -3.7458280916
C     -2.4433255979     -0.1600409464     -3.4822323863
C     -0.478986581     1.0972324045     -3.9147631053
C     -1.1108099122     -0.1922549902     -4.1323737276
C     -1.3195771362     2.7577378332     -2.2719331186
C     -2.4818259494     2.5324092077     -1.3854241214
C     -3.2267184291     1.4382610104     -1.858692886
C     -1.5106678725     1.968760347     -3.4079702663
C     -2.7279693971     1.1329715395     -3.1516247527


