56

 C     1.6019603048     -0.1348603393     4.2232219602
C     0.7239602409     -1.2977624108     4.1872983251
C     1.3907706029     -2.3621140695     3.5775699628
C     2.7470561947     -0.4250299407     3.3941201845
C     2.69885632     -1.8146215286     3.0862032184
C     2.7539055709     0.5081076358     2.2918992043
C     0.8898262059     0.9147249426     3.6210114289
C     1.6329935216     1.4256122733     2.4997713322
C     -0.5792118806     -0.8814990486     3.6748815727
C     -0.4829498857     0.550847085     3.3598888138
C     -1.2519483295     -1.704474908     2.7701896785
C     0.7735753596     -3.0844817528     2.4878725289
C     -0.5748367948     -2.819170328     2.1291238914
C     2.8723882392     -2.253629361     1.7771050433
C     1.7100817325     -3.0908702312     1.4173797149
C     2.9764796164     0.0699584372     0.9431748581
C     3.0615659457     -1.3461649086     0.6990657569
C     2.4932225366     0.9122041678     -0.139364357
C     0.9641511549     2.0413380304     1.439531258
C     1.62957602     2.0341914901     0.1520998511
C     -1.1804691338     1.1339747383     2.2851922809
C     -0.4974446999     2.0694044837     1.3996141421
C     -2.1295967719     -1.0949563784     1.796937839
C     -2.2243398714     0.3177641881     1.6505340021
C     -0.9776760307     -2.7812740862     0.7369550505
C     -2.0922990025     -1.8727128747     0.5984349277
C     1.3442713358     -2.8479734469     0.072047127
C     2.2520276087     -1.8382424657     -0.411488451
C     -0.0322833631     -2.7641114671     -0.3279204678
C     2.3348551105     0.3510235096     -1.4703616797
C     1.9208596755     -1.0459828901     -1.506129987
C     1.9119178119     1.1969128209     -2.5198166574
C     1.0138285704     2.7527739191     -0.9047156162
C     1.3611063483     2.4873362523     -2.2187211185
C     -1.1818638634     2.5822251127     0.2036207905
C     -0.4259335758     3.0867080894     -0.8772450222
C     -2.8602270208     0.7809517917     0.4941544291
C     -2.497419235     2.0685711903     -0.1255052835
C     -2.5280923512     -1.357711924     -0.6438578771
C     -3.2236298869     -0.1041205994     -0.5629943367
C     -0.3535260591     -2.0734106819     -1.5786348352
C     0.7179514456     -1.3871077744     -2.265748246
C     -1.7211824552     -1.6036380021     -1.8328794085
C     1.0867797796     0.6825873391     -3.5577311622
C     0.4136106105     -0.559988031     -3.398490166
C     0.1949111139     2.7419248657     -3.0892144361
C     -0.9213642157     3.1135614649     -2.2583538847
C     0.1131950454     1.703580113     -4.0183421184
C     -2.9751451557     2.0891820282     -1.4373419426
C     -3.4145070918     0.7026307807     -1.7268313226
C     -2.1937306738     2.547038204     -2.5517594299
C     -1.9948623269     -0.8102884146     -3.0053613462
C     -0.9363925081     -0.3811326269     -3.8226842908
C     -1.13042993     1.0448433397     -4.2037976955
C     -2.9278631189     0.3226433     -2.9451379702
C     -2.2764588103     1.5047088971     -3.5684700538


