56

 C     1.4399175284     -0.0655843595     4.0670180549
C     0.5988446305     -1.1991322361     3.9109203787
C     1.2169380525     -2.0561552694     2.9332904946
C     2.5632766527     -0.1774389146     3.1403182142
C     2.372156766     -1.3391064075     2.3550551988
C     2.7307089357     1.0713164518     2.4807099954
C     0.7164752368     1.0630263911     3.6541009896
C     1.497059034     1.8342055598     2.719047519
C     -0.7529487497     -0.7547795739     3.6581574716
C     -0.6553287055     0.6640880697     3.3287509698
C     -1.5652594896     -1.5705540899     2.88183505
C     0.4137560233     -2.8151607165     2.0983573998
C     -0.9941355695     -2.765937922     2.291587757
C     0.6520668903     -2.8762880736     0.633292505
C     2.5555462934     -1.3116793968     0.9060054194
C     1.6324739239     -2.0735684367     0.0124630051
C     3.2626116702     1.0497737661     1.1997063304
C     3.1868420727     -0.1620123404     0.3918934778
C     2.905646389     2.1126266408     0.341291986
C     0.8572664422     2.5052872626     1.6558200238
C     1.6979278752     2.8359164718     0.525737153
C     -1.2919573792     1.1936785168     2.186800249
C     -0.5819661952     2.2396473553     1.4045721558
C     -2.4487303587     -0.9892610146     1.9010968275
C     -2.3217053706     0.3689630596     1.5030944362
C     -1.6145703321     -2.9820847192     1.0325505442
C     -0.6241902741     -3.1051192476     0.0054921736
C     -2.6463991243     -2.0141199679     0.8617135702
C     -0.9111164265     -2.6669335781     -1.3147685145
C     1.4021503217     -1.6459371563     -1.3921903496
C     0.1720138312     -2.0525483134     -2.0939943036
C     2.9787845509     0.2495399158     -0.994678991
C     2.9608275262     1.6677581201     -1.0305565647
C     2.1350936518     -0.4866023361     -1.8852106813
C     1.1396428692     3.0745392192     -0.7859476916
C     1.9812914356     2.3775221561     -1.7734870775
C     -1.0834708725     2.5569590158     0.1343503886
C     -0.2317059366     3.0344277517     -0.9597631707
C     -2.7907903849     0.7427204521     0.1597786031
C     -2.2149314279     1.8731842203     -0.4746812595
C     -2.9832835275     -1.6696494197     -0.4127048851
C     -2.2656957505     -2.2383806854     -1.5476757582
C     -3.3054006739     -0.2794168929     -0.7288008402
C     -2.5654895225     -1.3944480203     -2.6389767618
C     -3.207052426     -0.1495707605     -2.1180987857
C     -0.214280113     -1.3580693702     -3.2979725646
C     -1.6155324579     -1.0492758818     -3.5628876373
C     1.5889737809     0.2839947544     -2.9828534475
C     1.3962034871     1.7446248574     -2.8419000064
C     0.5043792681     -0.203371162     -3.7002955402
C     -0.8128090559     2.6081652395     -2.2165106424
C     -2.0932900669     1.979923434     -1.9196524265
C     -2.604238396     0.9604515412     -2.763354698
C     -1.7272498653     0.4144413568     -3.7922490113
C     0.0214232346     2.0398788632     -3.2053140991
C     -0.4567699517     0.9055258096     -3.9402826432


