56

 C     1.3804220075     -0.0479569942     3.6625857195
C     2.5977859851     -0.2215547348     2.9939609174
C     2.5803252913     -1.5299504216     2.3330775064
C     0.5376398232     -1.1862664175     3.2946138501
C     1.2733014934     -2.0853573882     2.4543606158
C     -0.7657025997     -0.7543863184     2.9987094809
C     0.599809939     1.1262565847     3.4976732825
C     -0.7965891281     0.6831563099     3.2975399252
C     1.0846952947     2.163962149     2.6773342071
C     3.0317194602     0.7424151409     2.0332859143
C     2.2843289293     1.9333664533     1.8839744527
C     3.181072894     -1.4145438026     1.0586041824
C     3.4655299171     0.0109008045     0.8377945318
C     2.6730829106     -2.1959899638     0.0207614608
C     0.6091228693     -2.6686886573     1.3324781621
C     1.4300613832     -2.9314805241     0.1898344829
C     -1.4984093106     -1.3034989083     1.8941997902
C     -0.8289514066     -2.3707694959     1.118548218
C     -2.5574044575     -0.4867946247     1.3006934835
C     -1.6946730058     1.4708613936     2.6550026183
C     -2.7060405775     0.8713832175     1.780396522
C     0.1455192909     2.9202102144     1.8690068506
C     -1.238202089     2.7275992433     2.0269896489
C     1.9926761913     2.4340315234     0.5585232436
C     0.6800997288     3.0434527808     0.5312689526
C     3.2225361402     0.5321083248     -0.4247982052
C     2.4527322547     1.7629306824     -0.5755514634
C     2.6707657628     -1.7037624375     -1.3437766536
C     2.8827562048     -0.3336967867     -1.5398883528
C     0.8497282333     -3.1314198266     -1.1088590421
C     1.6228053283     -2.3805162457     -2.0824845065
C     -1.3710097617     -2.7063259633     -0.1313652429
C     -0.5479082756     -3.19828338     -1.2234693689
C     -3.025647704     -0.7808760066     -0.0589503138
C     -2.4984036939     -1.9507319234     -0.7114680081
C     -3.4234610971     0.2962344672     -0.9286170947
C     -3.107177717     1.8920962271     0.8891160555
C     -2.0729932206     2.9508089493     0.9327216293
C     -3.4174589921     1.6338758727     -0.4346445882
C     -0.1559275218     2.9780643065     -0.6324222672
C     -1.5716174302     3.0963927652     -0.3994783228
C     -2.4849691095     2.3929834138     -1.2476848074
C     1.6219455098     1.6507436006     -1.742074063
C     1.9785296833     0.4042557435     -2.4078452818
C     0.3009826699     2.1961013736     -1.7981058815
C     0.9531405787     -1.7082620278     -3.1200188135
C     1.0743512717     -0.2611520229     -3.2075002677
C     -1.1568102389     -2.7436583547     -2.433397425
C     -2.393397344     -2.0161274084     -2.1092365872
C     -0.4265834562     -2.0036694999     -3.3560648118
C     -2.8702451084     0.3524592472     -2.2733142923
C     -2.0649144233     1.577577587     -2.3217976442
C     -0.6709193423     1.504057728     -2.6560168823
C     -0.2651821541     0.3161345284     -3.3905780106
C     -2.4065410411     -0.8010528807     -2.8738027801
C     -1.16032686     -0.7476476372     -3.589844726


