56

 C     1.5152537821     0.0772750608     3.7575176917
C     0.7273639759     -1.1262487625     3.6787747406
C     1.3189590626     -1.9874189288     2.7214426391
C     2.6231532144     -0.0277914661     2.8191313727
C     2.5804138364     -1.3492665489     2.2769206046
C     2.6358874535     1.0863999331     1.9460529728
C     0.7250124032     1.1486481132     3.3665518854
C     1.402427749     1.8292792285     2.256429381
C     -0.651541159     -0.7168916712     3.5124312974
C     -0.6546306526     0.7164686966     3.2270476146
C     -1.4918783974     -1.5280007868     2.7973821256
C     0.4930562569     -2.6866649947     1.7561632348
C     -0.9236392272     -2.6393819985     2.0077884206
C     0.9291075439     -2.8216576465     0.371055364
C     3.0190190303     -1.5252445947     0.9873276848
C     2.2753460447     -2.3995694074     0.0529289433
C     3.072232614     0.9265276279     0.5925715268
C     3.507848294     -0.3949575244     0.224843137
C     2.463799197     1.788848394     -0.4278550769
C     0.6495829623     2.4165097541     1.2631734647
C     1.2967824062     2.6118564756     -0.0652112262
C     -1.4543101103     1.2409760292     2.2028834495
C     -0.8425872982     2.3040383391     1.3559333817
C     -2.5788666343     -0.9552709608     2.0347266022
C     -2.5543906233     0.4268385109     1.6571873623
C     -1.821772882     -2.9125074248     0.9794405281
C     -2.9483102512     -1.9485954719     1.0717903776
C     -0.0487353925     -2.8133489289     -0.7301595973
C     -1.4187191711     -2.964746911     -0.382492026
C     0.249585904     -2.0991369384     -1.9954396508
C     2.6111488856     -2.0259098219     -1.2366594931
C     3.4290320297     -0.8033593492     -1.141743639
C     1.6134811076     -1.7988137739     -2.2604797586
C     2.5614370928     1.3815263988     -1.7982258954
C     3.0253280259     0.0648456983     -2.1169516399
C     1.9650582671     -0.5920169278     -2.9238578677
C     1.4865664263     1.6579217916     -2.725300078
C     1.0165336703     0.3673275763     -3.2683961887
C     0.4964158024     3.1532181667     -1.0800249641
C     0.5729520308     2.639061621     -2.4459531242
C     -1.5912543541     2.7890567652     0.3059678755
C     -0.9115258311     3.4131641602     -0.8355171028
C     -3.1427774628     0.7988487976     0.3647210649
C     -2.7644214374     2.0573175473     -0.2018206157
C     -3.3305540017     -1.6052210809     -0.1946097916
C     -2.4351299943     -2.2792214427     -1.1519590748
C     -3.4820197736     -0.2367689212     -0.5753432999
C     -0.763393527     -1.2314217095     -2.6198294688
C     -0.3848727864     0.0407088979     -3.2242222838
C     -2.1215302424     -1.362497327     -2.1402379377
C     -2.9502722659     -0.1561146549     -1.9201940257
C     -0.7826337871     2.4780673107     -2.9287458071
C     -1.6463974106     3.1302080551     -1.9779147238
C     -2.7123908709     2.2104462965     -1.6081296927
C     -1.2857751911     1.1758103952     -3.1717502127
C     -2.5684543236     1.0568503736     -2.4391604804


