56

 C     1.3753373168     -0.0061386793     4.1600450688
C     0.567640548     -1.1909836435     3.8864215187
C     1.2770540485     -2.07719353     3.077101117
C     2.5167028202     -0.0928786101     3.2690331389
C     2.5441985621     -1.3809995693     2.6816621991
C     2.5790771861     1.0503070809     2.3989318033
C     0.6132522573     1.0501056708     3.6363492247
C     1.3494531643     1.7869009965     2.6321058479
C     -0.7456988228     -0.8122484259     3.4251258982
C     -0.7070549719     0.6238649     3.244919791
C     -1.438433983     -1.5969208683     2.4688066094
C     0.6980360447     -2.6421964465     1.9111320768
C     -0.7134670339     -2.5532141396     1.6369229624
C     2.6889722486     -1.5282684795     1.2972048902
C     1.6180363301     -2.4097262721     0.8258252647
C     3.0365112282     0.9215481131     1.0491056177
C     3.1086819521     -0.4232813157     0.4643401959
C     2.6948359839     1.9923512818     0.1904000242
C     0.688845723     2.4820687444     1.5881815812
C     1.5430507308     2.8467461441     0.5083742572
C     -1.3964504909     1.2705608466     2.160928291
C     -0.7365631637     2.2513230199     1.3107943045
C     -2.5377523324     -0.9112909414     1.8675802126
C     -2.4713445869     0.5402690894     1.6315414899
C     -3.1743117192     -1.4775730849     0.7854096835
C     -1.1734683084     -2.820577424     0.2813883895
C     -2.538937673     -2.4761227422     -0.0247079609
C     1.1937633351     -2.4215357122     -0.5203436289
C     -0.1927972789     -2.7816223983     -0.827389081
C     2.8414577012     -0.5572156382     -0.9139739991
C     1.9469375321     -1.5964767437     -1.4117196793
C     2.7119492926     1.8733764597     -1.2450876768
C     2.7394076306     0.5759238499     -1.8044372509
C     1.0035759495     3.357050899     -0.6764785584
C     1.7862192581     2.8411874899     -1.783075635
C     -1.2524253606     2.486489711     -0.0338788305
C     -0.3860066601     3.1334339184     -0.9842442071
C     -3.0600516297     0.829768222     0.3484583808
C     -3.6659018959     -0.3960816193     -0.0993175345
C     -2.3714790084     1.6682507446     -0.5689305223
C     -2.9536036536     -2.1814692506     -1.3671558513
C     -3.5862985628     -0.8267092626     -1.3894023655
C     -0.6425507106     -2.4631962397     -2.1426216586
C     -2.0336735064     -2.1682857903     -2.3829990262
C     1.3835099695     -1.1363154913     -2.6417057787
C     1.838126787     0.2263153635     -2.8966337709
C     0.1051188091     -1.5579300124     -2.9891504677
C     0.9060933913     2.490096899     -2.7989524068
C     -0.4514505244     2.7716740714     -2.3705757602
C     0.9162833791     1.1680662595     -3.3790392756
C     -2.3823816646     1.2646119368     -2.0016453289
C     -2.9253503971     -0.0154122126     -2.3801992547
C     -2.1361235538     -0.9213650408     -3.1654419459
C     -0.8395359438     -0.5747651395     -3.5634879366
C     -1.2871913817     1.7212859109     -2.80897294
C     -0.4718243414     0.7744171404     -3.5665214666


