56

 C     1.5460438195     -0.0242605329     4.1228119187
C     0.733742101     -1.2368895685     4.0091490852
C     1.4217877528     -2.1667733558     3.2356111558
C     2.6382791417     -0.1657994502     3.1812931158
C     2.630175248     -1.4867555237     2.7118938349
C     2.5428210915     0.8916081531     2.1745519615
C     0.7294143409     0.9926214204     3.6124073624
C     1.3814728742     1.6705806532     2.5018246661
C     -0.6289676224     -0.8761376118     3.6121134133
C     -0.6455589974     0.5588115167     3.4169784004
C     -1.305741739     -1.6716718717     2.6795105423
C     0.7915879884     -2.814727888     2.1159509605
C     -0.5904112759     -2.6827054143     1.9171928572
C     2.7274210823     -1.7650418991     1.3289464297
C     1.6608863706     -2.671182898     0.9584186923
C     2.8498347951     0.6647080048     0.8033711044
C     3.0674342298     -0.7260991103     0.395658756
C     2.2982400658     1.6057704202     -0.173329426
C     0.6135888216     2.3262972076     1.5275305588
C     1.2070965699     2.4809798768     0.2084092481
C     -1.4339004508     1.1714999723     2.4284087077
C     -0.855663551     2.2929793469     1.6718085533
C     -2.2504007073     -1.060874721     1.7803107561
C     -2.4221766772     0.3429804233     1.7271961453
C     -1.1406115355     -2.6881134696     0.5774715994
C     -2.2657161343     -1.8137707156     0.536367885
C     1.1592807491     -2.7444291912     -0.3777077374
C     -0.3019617053     -2.845709674     -0.5860766081
C     2.8739328706     -1.0618815723     -0.9574061341
C     1.9487102754     -2.1166848612     -1.3702178225
C     2.4252300756     1.2711256903     -1.5696368047
C     2.7797187537     -0.0407244107     -1.9238059342
C     1.456698522     1.7170277941     -2.5796992173
C     0.3690420293     3.0313809587     -0.8231781494
C     0.4622382221     2.5850970808     -2.2188868179
C     -1.6199515883     2.8337820268     0.6311201297
C     -0.9715807268     3.3192103809     -0.5483521694
C     -3.0687739533     0.8719636512     0.5602416637
C     -2.8441043694     2.1917745447     0.1837665745
C     -2.7445337636     -1.2621783656     -0.6905029336
C     -3.275519416     0.0558748112     -0.6622967166
C     -0.8409159098     -2.4457079229     -1.8256228548
C     -2.1215212261     -1.7237795625     -1.8997131797
C     1.3859805014     -1.752217284     -2.6574440253
C     1.9334112389     -0.490793457     -3.0330923495
C     1.1395494803     0.5841936817     -3.470982543
C     0.0140969242     -1.9718560452     -2.9036828966
C     -2.051934048     -0.8563351104     -3.0070948527
C     -0.2179789974     0.3283678626     -3.8183860332
C     -0.7154884678     -0.9711219015     -3.6072372492
C     -0.9137250279     2.4342550482     -2.7433689957
C     -1.7835082935     2.9433721459     -1.714941803
C     -2.8986737266     2.2537081733     -1.2764209653
C     -3.1559564636     0.931948878     -1.7972763056
C     -1.2796522083     1.2798769038     -3.4276962396
C     -2.4427873532     0.5024268014     -2.9462593136


