56

 C     1.4921149446     0.0059828534     3.9951750132
C     0.6786157573     -1.1500044629     3.9121994797
C     1.2918647571     -2.0359950227     2.9456053616
C     2.5756621155     -0.1205072722     3.0314764479
C     2.4435344191     -1.3490478746     2.3408406712
C     2.6974747619     1.1077959032     2.2975123085
C     0.7327861911     1.1101140428     3.5450261797
C     1.4590017003     1.85188022     2.5443512458
C     -0.6825724689     -0.7361170469     3.6462834207
C     -0.6336912913     0.6747999593     3.2954593582
C     -1.4974127342     -1.5777969302     2.8914158372
C     0.4910610954     -2.8290809505     2.1331685727
C     -0.9174771244     -2.7679681844     2.3108774268
C     0.7254554308     -2.9121001864     0.6690551318
C     2.6674687614     -1.3987327721     0.9120852071
C     1.7522501151     -2.1790152513     0.030784255
C     3.2011916502     1.0363123886     1.0209291985
C     3.305041814     -0.257827257     0.3611785904
C     2.7571390383     1.9973763912     0.0260954863
C     0.7777778126     2.4613523009     1.4766355608
C     1.5450479921     2.7221867131     0.2365939273
C     -1.334718983     1.1887028874     2.1858137459
C     -0.6839615033     2.2439239831     1.3863647561
C     -2.4148014893     -1.0244879953     1.9212503325
C     -2.3584468241     0.3373694097     1.5341447627
C     -1.5366451179     -2.9978713914     1.0486587997
C     -0.5487808133     -3.1314145703     0.0243452622
C     -2.5885779171     -2.0525219424     0.875680238
C     -0.8330388091     -2.6796519563     -1.2995091552
C     1.5327856271     -1.7877745193     -1.3797935145
C     0.2492485593     -2.0581793294     -2.0610714923
C     3.1688436902     0.0120627124     -1.02537919
C     2.9992278962     1.4182763391     -1.2574695423
C     2.3290851364     -0.7256132356     -1.8988529761
C     2.1275652989     1.5899194832     -2.359065438
C     1.8005778119     0.2374354657     -2.8613348647
C     0.8221696014     3.098820136     -0.9370084486
C     1.118818624     2.5425151999     -2.2728988799
C     -1.3205710446     2.642310767     0.2024701313
C     -0.5748982992     3.2185877045     -0.8669156556
C     -2.8875260905     0.7043183414     0.2028747606
C     -2.4441437367     1.9002486141     -0.3920028985
C     -2.9314471838     -1.7137942203     -0.3980051135
C     -2.1906719573     -2.2572030748     -1.5415437864
C     -3.327227558     -0.3439244835     -0.707915646
C     -2.4873340426     -1.3990248074     -2.6113616482
C     -3.2058897448     -0.2010161091     -2.0934729371
C     -0.1212625592     -1.2270796744     -3.1748757008
C     0.6057250883     0.0020294143     -3.4776854841
C     -1.4942092465     -0.9441170344     -3.4601330938
C     -0.1443026737     2.3243455947     -2.9645817808
C     -1.1748518742     2.8095423733     -2.1205143659
C     -2.3422364814     2.045253424     -1.8430983073
C     -2.6570187379     0.9600968489     -2.7040274799
C     -0.3696610104     1.0981518562     -3.6630883999
C     -1.6441583739     0.5161562577     -3.63274565


