56

 C     1.4216311029     -0.1717566214     4.6544075622
C     0.617806344     -1.2803653634     4.756573823
C     1.2370566757     -2.4273330969     4.0978687892
C     2.5361897948     -0.5235926513     3.7198178999
C     2.3969595871     -1.8818332519     3.3437575742
C     2.5598620344     0.4566667057     2.7067184664
C     0.6636269071     0.8939214363     4.0183502629
C     1.4170013928     1.3779725575     2.9474102566
C     -0.6848510812     -0.958485349     4.1174350475
C     -0.681618919     0.4223172085     3.6760354136
C     0.3309258522     -2.798266894     3.1112157328
C     -0.8959649026     -1.9456084425     3.1497224093
C     2.2418855129     -2.1911352688     1.9353510535
C     0.981730998     -2.8860401059     1.811683614
C     2.8002344475     0.1084960305     1.3395829451
C     2.5561400806     -1.2533177357     0.8935609274
C     2.5316982573     1.1292765238     0.408837526
C     0.77130683     2.0165085422     1.8471454312
C     1.5865437368     2.1851669006     0.7091211801
C     -1.2531386398     0.7607354278     2.4139285231
C     -0.6327845979     1.8131351211     1.5949940835
C     -1.5317369589     -1.6379312625     1.92475749
C     -1.9132325417     -0.2747005751     1.6299335229
C     0.2267238608     -2.8184956156     0.6483629004
C     -1.1966211909     -2.4683617116     0.7817735889
C     1.9751517333     -1.4453305584     -0.4399365844
C     0.8791693592     -2.3693253249     -0.57447713
C     2.4086278878     0.8955751274     -0.9896376408
C     2.0593270957     -0.3856038532     -1.4669975626
C     1.0709399637     2.7195346834     -0.4889664317
C     1.7700706907     2.0816416636     -1.5729301192
C     -1.1707458843     2.1810087047     0.3004699595
C     -0.3379823063     2.9503885347     -0.6431511914
C     -2.4378190617     0.0487254098     0.315219945
C     -2.2513727218     1.3954868925     -0.2599466028
C     -1.8908579813     -2.2248757551     -0.3799265441
C     -2.671880344     -1.0205862226     -0.5767178687
C     0.0933737435     -2.3641656304     -1.7658297565
C     -1.2987752951     -2.5120640027     -1.6553507296
C     1.2861311446     -0.4418311136     -2.7484423426
C     0.3412370174     -1.4744550539     -2.9013330505
C     1.2401941425     2.0876932445     -2.8306704167
C     1.0436709044     0.7805819312     -3.515046991
C     -0.7853499837     3.1877410892     -1.9663293926
C     0.1155939536     2.9325307598     -3.0879799923
C     -2.6599084836     1.6429137797     -1.6069231577
C     -2.0720316877     2.6755415789     -2.3805084906
C     -2.8011530128     -0.8000892874     -2.0170667438
C     -1.9294110389     -1.7208524041     -2.6750164521
C     -0.9403255785     -1.2172755954     -3.5719597898
C     -2.9389475718     0.4906577855     -2.5258339078
C     -0.0943793804     0.9423001591     -4.3275996478
C     -0.6221379541     2.3211038231     -4.1493771184
C     -1.9454188018     2.1969693713     -3.7477028672
C     -1.1921296646     0.0062330781     -4.2149297779
C     -2.330235467     0.7928547069     -3.7734475978


