56

 C     1.0508984433     0.0040217766     4.1578166292
C     2.2869590527     -0.2495188812     3.6193085865
C     2.2565791977     -1.6097145351     3.0312122439
C     0.2008986731     -1.1880537788     3.9267985392
C     0.8803049919     -2.0607716822     2.9908589483
C     -1.0671506232     -0.7603343923     3.6510225466
C     0.2762303199     1.1771014785     3.7634948723
C     -1.0770909832     0.7359163169     3.6194989756
C     0.7748909498     1.9958439317     2.7301095605
C     2.8817424055     0.6426595181     2.6283658705
C     2.1125337876     1.7214657719     2.1473454373
C     2.9946340477     -1.5934865538     1.8814481874
C     3.4768149171     -0.198180168     1.6355235754
C     2.4976326567     -2.1125448041     0.662781323
C     0.2640648593     -2.3867919264     1.7298717445
C     1.1124053909     -2.4938070217     0.5209127361
C     -1.7920922842     -1.2326374046     2.5316609664
C     -1.1556634705     -2.0285811865     1.5090290883
C     -1.911751192     1.1416116675     2.5886084626
C     -2.5649630997     -0.0839880043     2.1020585087
C     -0.0840107093     2.4442908404     1.6663016079
C     -1.451250452     2.0688503702     1.5740088902
C     2.0449841986     2.0075919182     0.7387733272
C     0.702762677     2.4910506675     0.4402438407
C     3.4031965373     0.0514109209     0.273074882
C     3.058204959     -1.2374110148     -0.3477551942
C     2.7072016975     1.2158694674     -0.2376811253
C     2.5565325915     -1.2503461674     -1.587753312
C     0.5195428462     -2.4464820285     -0.8190705807
C     1.3987948833     -2.0881058281     -1.9090540678
C     -1.7180233448     -1.9875115803     0.155757353
C     -0.909025755     -2.2268982382     -1.0380599208
C     -3.1335306882     -0.083200648     0.8912040648
C     -2.9178891325     -1.2026670924     -0.0284292543
C     -2.0929834794     2.0733786762     0.2690311366
C     -3.150044901     1.130058331     0.0804080021
C     0.1345938292     2.4667932518     -0.8524778325
C     -1.3378936067     2.446856744     -0.9426917917
C     2.1858212521     1.1957109705     -1.595091513
C     2.3973773964     -0.0078291524     -2.3364068144
C     0.9822961895     1.9709381434     -1.9535156695
C     0.9298519297     -1.6516549115     -3.1449724825
C     1.6095317527     -0.3650647604     -3.4533181102
C     -1.4035400912     -1.7806954942     -2.383222827
C     -0.4426888922     -1.494190431     -3.4372285042
C     -3.3543251999     -0.7728849422     -1.2785096599
C     -3.5677689608     0.6969031143     -1.1977524894
C     -2.652771773     -1.0408585171     -2.4743734541
C     -1.9212220412     2.1647901256     -2.2204355742
C     -3.0630946921     1.2678444475     -2.3362634677
C     -2.7213978648     0.1835582177     -3.2698008116
C     0.3483196691     1.6992611308     -3.2091947307
C     0.6796930877     0.5001231701     -3.9668641743
C     -0.5547620614     -0.2608623023     -4.2137292251
C     -1.0648825744     1.8026126706     -3.2929818797
C     -1.6154773171     0.5985597886     -3.9898954202


