56

 C     1.1005151912     0.0608670401     3.8652248708
C     2.2307870799     -0.256463024     3.1590331872
C     2.1308725452     -1.6578953975     2.6968897247
C     0.2308515315     -1.1361125109     3.8484736092
C     0.7909952375     -2.0927210003     2.9202873602
C     -1.0530233022     -0.6947277468     3.6647160048
C     0.3106754521     1.2029857143     3.462592164
C     -1.0465553454     0.7821736158     3.585433536
C     0.6996663637     1.9784665156     2.2945992784
C     2.7128611146     0.5359510393     2.065520962
C     1.9528861007     1.6526366056     1.5764632858
C     2.749891439     -1.742304889     1.4477168065
C     3.2921316673     -0.4011042608     1.1203420991
C     2.1213657877     -2.4702524754     0.4311725697
C     0.0042571674     -2.5469713393     1.7838034175
C     0.7351590411     -2.8271613779     0.5875511589
C     -1.9038309847     -1.1893428716     2.6218512022
C     -1.3991238558     -2.0998673527     1.6319319362
C     -2.0375347378     1.1669882402     2.6795497214
C     -2.7181994542     -0.0624169879     2.2049179837
C     -0.3704505582     2.5326160612     1.5254988006
C     -1.7457585984     2.166902904     1.745020398
C     -0.2355793763     2.8187848712     0.1135662238
C     2.1154909351     2.019803517     0.1605949578
C     0.9875923386     2.6325504173     -0.5714664003
C     3.4789998384     -0.0401732917     -0.1751721983
C     3.0658716127     1.2802815504     -0.6227633333
C     2.3403307828     -2.1004347549     -0.9542071403
C     3.1723773952     -0.9916840638     -1.270934732
C     0.1302943503     -2.7337532537     -0.7235765285
C     1.1390967535     -2.3327799169     -1.6907946131
C     -2.0351568233     -2.0846828027     0.3048419507
C     -1.2402569883     -2.4284934425     -0.8924280546
C     -3.3372346447     -0.0743189381     0.9965298982
C     -3.155380679     -1.2079903399     0.1041557613
C     -2.4250438406     2.1688524546     0.4633947952
C     -1.5237060241     2.6433978257     -0.5375518128
C     -3.3648952418     1.1471666574     0.1555221465
C     -1.6302538046     2.1993862832     -1.9059263325
C     0.8688039267     2.4693800361     -2.003191668
C     -0.4235870948     2.1320741395     -2.6312671904
C     2.9189759034     1.1722296132     -2.0332580389
C     2.9033029508     -0.2360096844     -2.4103680647
C     1.869929739     1.7854556407     -2.7125653287
C     0.8097586452     -1.5367367488     -2.8478586783
C     -0.1744449358     1.0483346812     -3.5823773486
C     1.7346287019     -0.4804410669     -3.2425285836
C     1.2095490908     0.7886356998     -3.5789745515
C     -1.5917702097     -1.8854964429     -2.1855492429
C     -0.5639379061     -1.3345288724     -3.0902678107
C     -1.0621498551     -0.0496321459     -3.582213604
C     -3.4759269239     -0.7224219826     -1.1936203627
C     -3.5206320657     0.7345817094     -1.1663218011
C     -2.6808950097     1.2446696821     -2.2399523159
C     -2.7380679066     -1.0843255331     -2.3172692998
C     -2.3545224968     0.1360720104     -3.0547907948


