56

 C     1.2873419124     0.0583133927     3.9072304286
C     2.4770026645     -0.0498526757     3.1584647227
C     2.4995771295     -1.3839249991     2.5817710778
C     0.4617208929     -1.1168342653     3.5760187532
C     1.2050916663     -1.9893552707     2.7450095231
C     -0.8434091382     -0.6748686066     3.2027907696
C     0.4799526663     1.1638498025     3.7074166156
C     -0.9096945146     0.7386822428     3.50208997
C     0.7970074841     2.1838164086     2.7381640647
C     2.7730794314     0.8647621011     2.1026688463
C     1.9046362484     1.9908618512     1.8338813479
C     3.1411114631     -1.3506575091     1.3209708764
C     3.3116031668     0.0706641246     0.982151901
C     2.7076846141     -2.2429179306     0.3596491777
C     0.580027933     -2.6367785911     1.6287497763
C     1.4715571318     -3.0086256347     0.5689594433
C     -1.4699693121     -1.2005003266     2.022281963
C     -0.806870624     -2.2886174237     1.282493387
C     -2.4239568256     -0.3052199349     1.3348517238
C     -1.4779025068     1.6149467739     2.5881725688
C     -0.4644986181     2.6387768952     2.2333817052
C     -2.3962557524     1.1462328201     1.5923033758
C     -0.5723991789     3.2537189143     0.9999949522
C     1.7095832402     2.3972693894     0.4231893919
C     0.52976386     3.1015435976     0.0500442331
C     3.1157496014     0.4582580961     -0.3226178368
C     2.3292637013     1.6357363302     -0.6275199995
C     2.764644271     -1.8851744391     -1.0658139191
C     2.8944665677     -0.5255799359     -1.3857500383
C     0.9702798555     -3.2912238016     -0.7098149977
C     1.7824148017     -2.6451760606     -1.7365342217
C     -1.2887399325     -2.611475758     -0.0544060547
C     -0.3905708686     -3.140045995     -1.0463592599
C     -2.9759251566     -0.7333156934     0.1142627063
C     -2.439425516     -1.9078205048     -0.5657685352
C     -3.4083158162     0.2077269113     -0.9017469262
C     -2.6585523807     2.0539614669     0.5230160995
C     -1.7925704128     3.1706728972     0.2897424722
C     -3.1277768046     1.5644542455     -0.7730145043
C     -0.0562187261     2.9884437699     -1.2705151126
C     -1.4712465353     3.097116383     -1.1158954555
C     -2.3648333523     2.2460768023     -1.8134716048
C     1.6946455627     1.4139813156     -1.8910203964
C     2.0117173447     0.0643434509     -2.3540359194
C     0.4697398931     2.0675215503     -2.2401084792
C     0.9137419268     -2.1007052936     -2.7028154851
C     -0.421249603     -2.6374207103     -2.4242034208
C     1.0470718271     -0.7050736957     -3.0700013317
C     -2.6214027561     -1.7484745243     -1.957239616
C     -3.1694471679     -0.4186573826     -2.1830154883
C     -1.5297073695     -1.955823605     -2.8741962297
C     -1.8654342659     1.5057574214     -2.9147150247
C     -0.441312061     1.3749709149     -3.0929949538
C     -0.1511986918     -0.0227861803     -3.5098177086
C     -2.4276150931     0.2142077285     -3.1718535799
C     -1.3639778774     -0.7097608695     -3.5944757534


