56

 C     1.501764094     -0.2122191388     4.3164760022
C     0.6988443852     -1.31286131     4.173016999
C     1.276496162     -2.2728527525     3.2250904453
C     2.6231612499     -0.3691451362     3.3803907505
C     2.4993858074     -1.687802261     2.7287670143
C     2.6175209437     0.7489485589     2.5516757294
C     0.7093334895     0.9437036585     3.903149523
C     1.4257731605     1.6018047908     2.9063379483
C     -0.6432798479     -0.9402397025     3.7339280662
C     -0.6411297099     0.5028534404     3.5458113291
C     0.2510864208     -2.6186633221     2.3271526462
C     -0.9336505894     -1.7669310372     2.6354446576
C     0.5275267341     -2.856312806     0.9521038337
C     2.7406802133     -1.7963255348     1.3559561978
C     1.8520375891     -2.5544573397     0.5188052555
C     2.9931088178     0.6619083072     1.1478740577
C     3.129844952     -0.6284118514     0.5542475782
C     2.5699291303     1.7034917452     0.3038039061
C     0.7596827005     2.3380414548     1.8893637212
C     1.5466649648     2.6655670358     0.7436141498
C     -1.2888063129     1.0468968279     2.4296260741
C     -0.6771392563     2.1685179702     1.7018916575
C     -1.7523470118     -1.2899471667     1.5760080489
C     -2.1087912542     0.1250805629     1.6236955588
C     -0.5695438492     -2.7699175429     -0.0150204102
C     -1.7672041052     -1.9899783583     0.3019029545
C     -0.2193583547     -2.8516772974     -1.3848100595
C     2.0491397837     -2.095239038     -0.8451738167
C     2.7538355251     -0.8421739779     -0.8217630231
C     1.1017740003     -2.3343170664     -1.7948213289
C     2.4154751897     1.52288373     -1.1350560311
C     2.3532715821     0.2093470191     -1.7060599487
C     0.9427651016     3.1752160675     -0.400275354
C     1.5047100142     2.4971597448     -1.5734482551
C     -1.2891500754     2.622296655     0.4728982505
C     -0.4542732052     3.1750081312     -0.5763811654
C     -2.7927842734     0.6353118876     0.5308174601
C     -2.4925784761     1.987186678     0.0218266197
C     -2.627850419     -1.4844670727     -0.7678204831
C     -3.2165659014     -0.1865234096     -0.5595127406
C     -1.1196678515     -2.496268242     -2.3917198785
C     -2.3623760441     -1.8675180322     -2.1431408917
C     0.8874469632     -1.4072960719     -2.8868390218
C     1.3701910095     -0.0484407557     -2.7765273253
C     -0.3986196543     -1.7006285313     -3.4135283298
C     0.4913709707     2.2616105756     -2.5204415295
C     -0.7257648299     2.8854723065     -1.9866754694
C     0.4501471037     1.0099891594     -3.2290561103
C     -2.9065598475     2.0274939285     -1.3172662067
C     -3.4112323661     0.7149503792     -1.6698909796
C     -1.9608305775     2.3822885596     -2.3598132132
C     -2.5443871154     -0.9093948323     -3.2330778302
C     -1.2511010445     -0.732639352     -3.8925986502
C     -0.8556360201     0.6647917863     -3.792037264
C     -3.0207943514     0.3690377355     -2.9746780695
C     -2.0115457546     1.3757902431     -3.3842430492


