56

 C     1.5711008345     0.0313837285     4.122594429
C     0.7718031911     -1.1803175179     4.0714999598
C     1.5385328779     -2.1893907955     3.4824488007
C     2.7084198719     -0.1807636976     3.2080809177
C     2.7204672841     -1.5134305818     2.8316698679
C     2.6578775358     0.8075705711     2.1511773901
C     0.8117634312     1.0200381373     3.5112172525
C     1.5400538733     1.6691139311     2.4470532847
C     -0.5353895987     -0.877838055     3.4659799813
C     -0.5344611883     0.524883729     3.1694686285
C     -1.1598554087     -1.7518954483     2.5189675635
C     0.9576895442     -3.0250887803     2.5256609351
C     -0.3968016026     -2.9192606559     2.1200568784
C     2.731597378     -1.9021081402     1.4437907145
C     1.7573030307     -2.9238858805     1.3017065663
C     2.8462344995     0.4719700171     0.7703271334
C     2.7903217398     -0.9317998424     0.3847565592
C     2.4673539349     1.4881415883     -0.1892950704
C     0.8441283948     2.3487777448     1.4490930727
C     1.5538401922     2.5780721395     0.2002978681
C     -1.2361920136     1.0962451881     2.0948015554
C     -0.6147788866     2.2315864517     1.4171478231
C     -2.1042198494     -1.1611231653     1.5590025187
C     -2.1956294195     0.2670756861     1.3601521606
C     -2.4884917399     -1.9929913126     0.4320885581
C     -0.4124674524     -3.2630498034     0.6999789168
C     0.9290555577     -3.0888635242     0.1620999694
C     -1.4622230687     -2.929004436     -0.0775110592
C     2.1561426258     -1.2657477143     -0.9012685815
C     1.1277620809     -2.3145253687     -1.0030514004
C     2.471903281     1.1070980619     -1.5552090872
C     2.1266477737     -0.2585813286     -1.8706575521
C     1.8372547125     1.9274372664     -2.5359227455
C     0.8806962514     3.3186408767     -0.793283848
C     1.1101351592     3.0441716172     -2.1924794623
C     -1.2639798872     2.7834095397     0.2989998241
C     -0.5369182753     3.502112591     -0.6625567853
C     -2.8210734873     0.8157240301     0.1350907188
C     -2.3849738362     2.0802480462     -0.3560654603
C     -3.1498655817     -1.4941980588     -0.6691715705
C     -3.3636748846     -0.083997272     -0.8532041752
C     -1.2724977512     -2.6452543973     -1.4843799457
C     -0.0038830555     -2.1817542829     -1.9524022215
C     -2.4767485437     -1.9975165229     -1.8920755127
C     1.1465693111     -0.2450879764     -2.979619442
C     1.0323019106     1.0746822657     -3.4251404346
C     0.0027670584     -1.1173852868     -2.9593317004
C     -0.196448346     2.9657493274     -2.8941965998
C     -1.1737417709     3.2496029003     -1.9601751744
C     -2.3151236863     2.3877297351     -1.76641912
C     -0.2413601662     1.7144751819     -3.6412325739
C     -3.1606746635     0.1880853066     -2.2424592989
C     -2.4569833868     -0.9821256033     -2.8104006412
C     -1.2409329882     -0.5316152659     -3.4077708239
C     -2.5150908993     1.3393723904     -2.6960878368
C     -1.3752419183     0.9152026653     -3.5638417645


