56

 C     1.2609879979     0.034150153     4.0004119796
C     2.4230160221     -0.1622930019     3.176037875
C     2.3865303225     -1.4608903555     2.6156290322
C     0.412016069     -1.124160776     3.8512532865
C     1.1304084452     -2.0648382201     3.0406454045
C     -0.9173013361     -0.6957833551     3.4436374059
C     0.4770076815     1.1829332502     3.8088824286
C     -0.9097015911     0.7151294491     3.4903807429
C     0.8091778384     2.166366876     2.8772407881
C     2.7224953398     0.7919599759     2.1322357262
C     2.0061444936     2.021943817     2.0416511781
C     2.6736660855     -1.3516143226     1.2042710727
C     2.9884838397     0.0356309967     0.9208445767
C     2.0067509558     -2.1475010834     0.2358627854
C     0.4157978947     -2.78281429     2.1127623789
C     0.9927796313     -3.0467164811     0.7683353393
C     -1.6183373613     -1.3395897663     2.367556927
C     -1.0196543944     -2.5776738226     1.9315010444
C     -2.3393746722     -0.5400038086     1.3648681479
C     -1.4452747762     1.489901723     2.4629412224
C     -0.4517470136     2.5448760459     2.1948348088
C     -2.2095385409     0.9171909975     1.3979682867
C     -0.4419064729     3.1839984442     0.996509262
C     1.9687070424     2.6331487224     0.7524125944
C     0.8256021783     3.4574849318     0.3560003132
C     2.7711852024     0.5680608001     -0.367133601
C     2.42734032     1.9633710852     -0.4174868921
C     1.8685035854     -1.6765043397     -1.151154159
C     2.3356692183     -0.3234809658     -1.4552120595
C     0.8480464943     -2.2863849394     -2.017948171
C     -0.0557382982     -3.4270964315     -0.0419915447
C     -1.3283183151     -3.0880716834     0.6701648166
C     -0.1813239445     -3.0756786676     -1.3864155434
C     -2.7094604432     -1.1603302042     0.0830749812
C     -2.1653041836     -2.4726709307     -0.2361693563
C     -1.5836050207     -2.7143742641     -1.5827317453
C     -3.0362152283     -0.3549785387     -1.0397165134
C     -2.2908132462     1.6931954878     0.1491075962
C     -1.4122120448     2.8151201929     -0.0432452726
C     -2.7540943841     1.0677393496     -1.0272259251
C     0.6244093338     3.3681181833     -1.0141141214
C     1.6483357745     2.4949931576     -1.5440679369
C     -0.7684080053     3.016992357     -1.2971894303
C     1.8262178485     0.3032942997     -2.6358361482
C     1.3532462664     1.6987269589     -2.6039926264
C     0.4246309072     -1.6233596719     -3.2200316204
C     0.9843880281     -0.3635917381     -3.5242784293
C     -1.9837853793     -1.952266034     -2.6533254318
C     -2.8725063014     -0.8267852897     -2.3950487304
C     -0.9793492392     -1.5464253111     -3.5937735712
C     -2.2531803932     1.4172677547     -2.3452500145
C     -1.0990129967     2.2481894455     -2.4533687895
C     0.0212256374     1.7425727186     -3.2541303023
C     -0.1074986596     0.5564376573     -3.9765863813
C     -2.4044016765     0.2499640402     -3.1844948106
C     -1.2947065651     -0.1928805377     -3.9851028535


