56

 C     1.3120777596     -0.0711833426     4.5753210157
C     0.5780936551     -1.2534777227     4.2748364383
C     1.5035729812     -2.1739643904     3.6759099678
C     2.6288600053     -0.134723568     3.8983131093
C     2.7589583371     -1.3999181661     3.333023774
C     2.7521695661     1.0230623126     3.0743741992
C     0.6109900727     1.0573735579     4.0871637558
C     1.5010245689     1.7748035755     3.2520242612
C     -0.614684988     -0.8845702278     3.5399872886
C     -0.6229863398     0.5889747112     3.4684645641
C     -1.0334894469     -1.6388767073     2.384093086
C     1.1280311167     -2.8715610402     2.5650959733
C     -0.1666281371     -2.7046431245     1.9402107178
C     2.9806775712     -1.5532007553     1.9195404016
C     2.1367259063     -2.6405258828     1.5019551677
C     2.9192008954     0.9034444005     1.6702571998
C     3.0449042658     -0.3949260443     1.0377315782
C     1.0739577496     2.2984737699     2.0164940531
C     2.0388361984     1.8953922829     1.0144249962
C     -1.1219390263     1.2224553602     2.3317245128
C     -0.2829126399     2.2282684924     1.6312099783
C     -1.8386646113     -0.9738508642     1.3702069842
C     -2.0031659288     0.453238772     1.4629474224
C     -1.9740382714     -1.5196573312     0.0185197432
C     0.0493769459     -2.7943925479     0.5370209853
C     1.4965143115     -2.6478980867     0.2878808822
C     -0.8674153589     -2.3306003614     -0.4173753524
C     2.538557939     -0.5142004627     -0.3210705974
C     1.8504892456     -1.7173644684     -0.7360477205
C     1.6926594365     1.8376630775     -0.3238288547
C     2.1684946789     0.687531655     -1.0825437807
C     -0.5746141038     2.5517861979     0.2713282999
C     0.4340636722     2.4582942521     -0.7616659065
C     -2.5792132968     1.1398777672     0.3844387775
C     -1.9323919406     2.3628326935     -0.1291175517
C     -2.7779931264     -0.8538343163     -0.9958111864
C     -3.2199236632     0.48983689     -0.7067043001
C     -2.5673343059     -1.196472305     -2.3809787464
C     -0.3799361953     -2.2046840624     -1.7846855145
C     1.0266134977     -1.7418879064     -1.9020918403
C     -1.3010747793     -1.8473123057     -2.7676497189
C     1.6896466268     0.5430353841     -2.3724738966
C     1.2878703135     -0.7538386698     -2.876757395
C     0.0423384993     2.4139819503     -2.1622173119
C     0.7999918816     1.528907292     -3.024922144
C     -2.3126382457     2.5254770899     -1.4378810294
C     -3.2868229111     1.4597095795     -1.7787848152
C     -1.3583631265     2.6141929187     -2.5104458614
C     -2.8835930603     -0.2543211848     -3.4350885757
C     -3.114843405     1.1201906959     -3.0890255504
C     -1.9522305911     1.9275156475     -3.6268625991
C     -0.8496253521     -1.2134423565     -4.0002432211
C     0.392407636     -0.5364995256     -3.9416805806
C     0.197684844     0.9061414995     -4.1488182552
C     -1.8260213058     -0.2649380953     -4.3881233008
C     -1.1922360204     1.0742739966     -4.4215835263


