56

 C     1.5843903465     -0.1504724219     4.1777866072
C     0.7290927235     -1.3298523204     4.2147075241
C     1.230720826     -2.3009142513     3.2408991579
C     2.5364478126     -0.3442521339     3.1795031032
C     2.3936603462     -1.7178334948     2.6491035197
C     2.4702939245     0.7710429675     2.2340370801
C     0.7911794177     1.012024739     3.8243105325
C     1.4269531395     1.6651450404     2.7048327536
C     -0.5325487264     -0.9311758622     3.8007341755
C     -0.5243504409     0.5385714386     3.5943685945
C     0.1622528215     -2.6715557215     2.3644576253
C     -0.9367947889     -1.7536229585     2.6617867967
C     0.414109871     -2.9828319593     1.0071276184
C     2.6013220737     -1.8983902477     1.2934456467
C     1.7519544417     -2.7668877346     0.5435850476
C     2.66069893     0.5845051637     0.8342092746
C     2.9064259135     -0.7651329359     0.3850998604
C     2.0662355134     1.522964938     -0.117751413
C     0.6546417553     2.3580985467     1.7724831548
C     1.1692655769     2.5406989939     0.4130158244
C     -1.3071763123     1.0880488622     2.5681498307
C     -0.805848095     2.2788389771     1.913721996
C     -1.741246162     -1.2287195015     1.6366790056
C     -2.1502119754     0.1912432542     1.7456733974
C     -0.668617643     -2.8082229902     0.0290856084
C     -1.741588919     -1.8750293129     0.3222751915
C     -0.3480828144     -3.0677867202     -1.3356672404
C     1.9743478313     -2.4688465664     -0.8450368771
C     2.6223761062     -1.1613483787     -0.9335578791
C     1.0646798312     -2.8622038509     -1.7843845092
C     1.9758020376     1.1520605035     -1.5379218746
C     2.2125103087     -0.2310282235     -1.95677444
C     1.1213237098     1.9394636789     -2.3694387164
C     0.3458274417     3.2951413609     -0.4714524619
C     0.4179211262     3.0381537857     -1.8635077907
C     -1.6166868153     2.8814610896     0.9290081993
C     -1.0323681698     3.6029983754     -0.1395282034
C     -2.8507793479     0.7699641787     0.6926383719
C     -2.7856703567     2.1761555405     0.4495029413
C     -2.4391001768     -1.2213924309     -0.792691684
C     -2.9652818685     0.0910272526     -0.5999140402
C     -1.1615058301     -2.6014454655     -2.384403955
C     -2.1274193557     -1.5761903745     -2.1370129403
C     1.021271344     -2.1333032431     -3.0122003299
C     1.5253802138     -0.7846683681     -3.0839097041
C     -0.3224511796     -2.1676067123     -3.484847591
C     0.2468024987     1.2903975625     -3.3712886902
C     -1.9051794301     -0.5118080009     -3.1300187677
C     0.454407871     -0.0081082987     -3.7340971524
C     -0.7146621715     -0.8715364397     -3.854175253
C     -0.9638407885     2.9679345431     -2.3667387707
C     -1.8304519674     3.3042955534     -1.3173879799
C     -2.8607218086     2.3783741973     -0.9588360279
C     -2.9310142117     1.1041065426     -1.6233602253
C     -1.1118727925     1.8020174213     -3.1532116578
C     -2.1568236458     0.8474324525     -2.8231122741


