56

 C     1.39061635     -0.0723021999     3.690069309
C     2.5348077047     -0.2846730389     2.9243478732
C     2.482167611     -1.6264428072     2.3465245447
C     0.5424069972     -1.2575334558     3.5500976454
C     1.2705334456     -2.2496436495     2.7986661111
C     -0.7054907862     -0.813121398     3.0772485516
C     0.609379226     1.1049416381     3.4775285952
C     -0.7077689033     0.6593978074     3.0750348196
C     1.2045245024     2.1833939779     2.7902228718
C     2.9183096409     0.650713513     1.9029472868
C     2.3544545039     1.9199291302     1.9172892185
C     2.7176467772     -1.5145683386     0.9623004838
C     2.9894436325     -0.1027917641     0.6522192829
C     2.0420968002     -2.3718857006     0.0232819338
C     0.5791221712     -3.0472215034     1.9187993387
C     1.1275135937     -3.3264821167     0.6006160597
C     -1.4393807986     -1.5631431666     2.0786820305
C     -0.861995159     -2.8396426061     1.718920818
C     -2.2961171846     -0.8607614919     1.1308479115
C     -1.4826523591     1.364490541     2.1288984764
C     -2.3398949899     0.6163415603     1.1918817266
C     0.3476517704     3.0252294947     2.0592437958
C     -0.9768592886     2.6682685752     1.7313148796
C     2.1351305142     2.5997722854     0.6514619474
C     1.0023867089     3.4416414906     0.8133716749
C     2.6368164034     0.4604562002     -0.5874291389
C     2.293109361     1.9058776446     -0.5982270608
C     1.7978666041     -1.8545544132     -1.3227491242
C     2.111203015     -0.4513057804     -1.6296828926
C     0.7685600139     -2.4965748966     -2.1078723116
C     0.0492945178     -3.8228649334     -0.1778186709
C     -1.1934060776     -3.4447871235     0.4971943488
C     -0.0846317228     -3.4597239903     -1.5037477487
C     -2.6499056375     -1.5406072605     -0.1306015338
C     -2.0639053091     -2.8238740005     -0.4363663808
C     -1.4720417225     -3.0153383507     -1.7324799265
C     -2.9940100817     -0.7558158783     -1.2757262567
C     -2.7984312622     1.3301268824     0.0491493235
C     -3.1472245336     0.6442618309     -1.1310927057
C     -1.2450601814     3.2013245943     0.3944354559
C     0.0374192874     3.6390396037     -0.1859151493
C     -2.1703306047     2.5904227735     -0.3991811035
C     1.5226146543     2.4139259755     -1.6849159549
C     0.354633896     3.2585644105     -1.4921588238
C     1.4546437442     0.1500377541     -2.7417833499
C     1.2068302674     1.544061993     -2.7613443208
C     -0.0664931283     -1.7299337316     -3.0330338122
C     -1.4823958566     -2.0258459232     -2.7181574032
C     -2.3802056696     -0.9627617089     -2.5806704797
C     0.2921345968     -0.463583027     -3.385055505
C     -2.6491905505     1.3401456241     -2.2963307173
C     -1.9716695993     2.5070433785     -1.8584036384
C     -0.6956967438     2.7977258717     -2.3945637138
C     -0.1152812357     1.825957958     -3.2723455531
C     -2.0511412376     0.3474505624     -3.1350114897
C     -0.7321376971     0.5872411943     -3.5799315389


