56

 C     1.1619575617     0.0256153815     3.9637204173
C     2.3102795315     -0.3044708329     3.3339354764
C     2.1890102576     -1.7352265564     2.9005582594
C     0.2652586074     -1.1881209502     3.9471366158
C     0.8075464692     -2.1189336284     2.9918154705
C     -1.0111171807     -0.7537313918     3.8671370473
C     0.3729791536     1.1573642216     3.5516708408
C     -0.9737110901     0.745333206     3.835671815
C     0.6630464743     1.8031777604     2.2815696984
C     2.7707349898     0.4469906799     2.1852423463
C     1.9085774688     1.4309423267     1.5729340677
C     2.8775318905     -1.8641642926     1.7420113523
C     3.3960529659     -0.5334418608     1.3507983228
C     2.2637890266     -2.4165869317     0.5738128936
C     0.0681621057     -2.398766442     1.7714157678
C     0.84080895     -2.6089942294     0.5275028702
C     -1.874124609     -1.1773035432     2.7845410992
C     -1.3242896985     -1.9068604408     1.6656910238
C     -2.0097897369     1.1573653114     3.0677599339
C     -2.6971345941     -0.0358455035     2.5232063786
C     -0.477093398     2.3127384414     1.4885204068
C     -1.8060257373     2.0437265307     1.9635034379
C     -0.3160233953     2.5856350698     0.0453835948
C     2.0195432584     1.616258489     0.1047522081
C     0.9610059358     2.2960129179     -0.6284976181
C     3.4001953239     -0.4558593483     -0.0203119968
C     2.9123327582     -1.756552421     -0.5250386227
C     2.9178857541     0.7354655104     -0.6632357375
C     2.3656281993     -1.8221221844     -1.7723626543
C     0.1819848929     -2.4764564447     -0.7883406304
C     0.9938801959     -2.2720958394     -1.9442880151
C     -1.9402713086     -1.6808282656     0.3346424144
C     -1.2322798418     -2.075053676     -0.8751327486
C     -3.1742437738     0.27181578     1.2727300963
C     -2.8238474283     1.6844788087     1.0155005849
C     -3.0017100033     -0.6671885886     0.1986111991
C     -1.4837321225     2.6710934354     -0.7708916442
C     -2.7345546726     2.1226223859     -0.2725441901
C     -1.4894936643     2.4238667948     -2.2178385651
C     0.9523840682     2.2351378307     -2.077260561
C     -0.2990714525     2.1848324979     -2.8565948216
C     2.7687835663     0.607718189     -2.0689676093
C     2.5664505803     -0.7177066731     -2.6423225242
C     1.8862801236     1.4469872234     -2.7689851324
C     0.516443207     -1.6312914705     -3.1756424441
C     -0.182100369     1.0682301408     -3.8133285662
C     1.5257669795     -0.6812255811     -3.6200569684
C     1.1606033237     0.6636589171     -3.7981382842
C     -1.7170278994     -1.612315241     -2.1610514323
C     -0.8070836008     -1.2838394543     -3.2746666384
C     -1.1881483682     0.0478738402     -3.7817671173
C     -3.3365602474     -0.1452490821     -1.0781373585
C     -3.276307907     1.2959042631     -1.2923155758
C     -2.6363958429     1.5858622506     -2.5360015311
C     -2.7903800285     -0.7105738127     -2.2423130008
C     -2.4223856789     0.3640964622     -3.1957436408


