56

 C     1.5528387676     0.0577041659     4.8053099599
C     0.7071980697     -1.1320711222     4.8732596791
C     1.2781004208     -2.1071259466     4.0955575034
C     2.5938991841     -0.21521801     3.7521941739
C     2.4572002129     -1.5512224382     3.345889307
C     2.5635660844     0.8061173231     2.7402570763
C     0.7668165062     1.0376025145     4.2371151744
C     1.4848882094     1.6962991667     3.1547302279
C     -0.6103111486     -0.8372703898     4.2543776977
C     -0.6016977775     0.5062351057     3.8768377374
C     0.3343003021     -2.5987924979     3.1149139409
C     -0.8839525951     -1.8086929347     3.1956129374
C     2.2629565957     -1.8495533822     1.9689165523
C     0.9964057319     -2.6098850263     1.8764981169
C     2.652599248     0.496979698     1.3375279338
C     2.5030237119     -0.8873582152     0.926095929
C     2.1696464036     1.486828211     0.3832085578
C     0.7550893418     2.3462410433     2.2088497586
C     1.2773592508     2.4662235227     0.8874493968
C     -1.2454328305     0.9576452885     2.6606203116
C     -0.709953159     2.1265162604     2.0447040753
C     -1.5013142857     -1.4013338088     1.991767037
C     -1.8575368539     -0.0006706155     1.7512180111
C     0.2490458693     -2.5364374066     0.7046180899
C     -1.1155890853     -2.1118478196     0.7759889536
C     1.9748433386     -1.1795188952     -0.4080904124
C     0.9646831337     -2.2073964257     -0.5068931585
C     2.0505952505     1.1774963559     -1.0478215898
C     1.9920230471     -0.2084654044     -1.4932165168
C     1.4040773655     2.1529195423     -1.8707436622
C     0.1884160286     2.9361885078     0.0671128223
C     -1.0334942513     2.4729012736     0.7249823611
C     0.3093135846     2.9287329594     -1.2718256709
C     -2.253775881     0.4014578399     0.4050950114
C     -1.9361004635     1.7196220474     -0.0935710866
C     -1.7982347651     -1.868023422     -0.4434743875
C     -2.5301468827     -0.6276030087     -0.6051125984
C     0.2376906243     -2.3697136062     -1.6703121938
C     -1.213447568     -2.4639992511     -1.615794673
C     1.4034881245     -0.5452888042     -2.809774159
C     0.6059873867     -1.7455712176     -2.9197128646
C     0.9552117292     1.8371637621     -3.1539876401
C     1.0036515609     0.5200994861     -3.7160349841
C     -0.8706036037     2.7696477647     -2.1083278903
C     -1.9706440425     2.0278986223     -1.5328983173
C     -0.3803161685     2.4118586166     -3.3940715579
C     -2.8778659023     -0.2364232569     -1.9232863153
C     -2.6379006626     1.1002842962     -2.4006847627
C     -1.684784465     -2.1752385096     -2.8938576952
C     -0.5413409014     -1.8276828047     -3.7611308461
C     -2.6443838637     -1.1431340635     -3.0750562043
C     -0.1573457692     0.404710935     -4.5630792343
C     -1.0594054117     1.5560297813     -4.2452557745
C     -2.2842756759     0.9863084635     -3.8197362826
C     -0.9543089181     -0.7524132405     -4.5864292211
C     -2.3407521523     -0.38976102     -4.2305286345


