56

 C     1.6470996808     0.0887858983     3.7928685259
C     0.8391669075     -1.0577145645     3.7463034602
C     1.3193862821     -1.9584215677     2.7182525456
C     2.5632777159     0.0279000798     2.7022857101
C     2.3967345889     -1.2528211611     2.0492878733
C     2.3647545997     1.1804090172     1.8920909569
C     0.7718820895     1.2271309686     3.5649500259
C     1.2446419259     1.9612888134     2.4488164951
C     -0.5689408663     -0.6697134252     3.7688730553
C     -0.5987461655     0.8091170857     3.6354572523
C     -1.4747390337     -1.4411357206     3.0815737447
C     0.3920841629     -2.7354118477     1.970832681
C     -1.0221130572     -2.5876379053     2.2737886624
C     0.745452852     -3.0434899671     0.6115003217
C     2.5900802908     -1.3587462348     0.6524102265
C     1.8635936888     -2.3925826395     -0.0146505777
C     2.5986567181     1.1544740712     0.4910567016
C     2.8961250483     -0.137024696     -0.1114827131
C     2.009963762     2.2299560916     -0.3165452111
C     0.3325849454     2.5854243557     1.5518386881
C     0.787215606     2.8790826321     0.1923123201
C     -1.5026792668     1.3970867268     2.7530149663
C     -1.0619937371     2.3726828916     1.7957604518
C     -2.5806440549     -0.794264318     2.3333746194
C     -2.5498665635     0.5843084116     2.1093661767
C     -1.9483071813     -2.7279243633     1.2274101786
C     -2.90716265     -1.6251369176     1.2420845664
C     -0.2612687123     -3.2400113512     -0.4223171708
C     -1.6102156946     -3.0157902544     -0.1223383009
C     1.6184014567     -2.3360331812     -1.4498214704
C     0.2669203453     -2.7995701522     -1.6913525186
C     2.8562723497     -0.2183972262     -1.5299538322
C     2.1520545377     -1.322004395     -2.2078941993
C     2.2187406481     2.1690165153     -1.7281847147
C     2.6669077585     0.9370041095     -2.2904619312
C     1.2307274458     2.67981386     -2.6562831827
C     -0.2136117064     3.2215786379     -0.7607326643
C     0.030731931     3.1204359599     -2.1621745936
C     -1.9589638551     2.2783612191     0.6609712893
C     -2.7968590863     1.1001200682     0.789897868
C     -1.5697881154     2.738632865     -0.5654354609
C     -3.0793468249     -1.1520744897     -0.0772358605
C     -2.3770226655     -2.0914393865     -0.9607911091
C     -3.0188915306     0.2529762948     -0.3500026344
C     -0.537437109     -2.0889305321     -2.5896465973
C     -1.8530986043     -1.6474180665     -2.1538009333
C     1.3958980191     -0.7559532225     -3.3271219341
C     1.8190293505     0.6074911592     -3.4649332683
C     0.9335763177     1.6373859496     -3.6734680523
C     0.0250287192     -1.0498078793     -3.4240575445
C     -1.0781239521     2.3580460776     -2.7928332005
C     -1.9933916849     2.0352323146     -1.788318253
C     -2.5402323784     0.7023679303     -1.6704935385
C     -2.0244732472     -0.2622538165     -2.5897082564
C     -0.5002801246     1.376874948     -3.6543944976
C     -0.9487918457     0.0487243294     -3.5099451717


