56

 C     1.146376006     -0.2282837782     4.0935781267
C     2.2484022794     -0.4702174216     3.3042942421
C     2.151671849     -1.8073733341     2.6946298481
C     0.2853205525     -1.4464716839     3.992929902
C     0.8944267918     -2.3723182477     3.0539742666
C     -0.9962027691     -0.9954435394     3.7700635338
C     0.3262178071     0.9441396982     3.8416135076
C     -1.014673554     0.4776018391     3.7290385899
C     0.7715744091     1.8980072688     2.8850306737
C     2.6712592462     0.4503020534     2.2704467443
C     2.0046649219     1.6649321951     2.1306487516
C     2.5690400137     -1.7098603042     1.3515738535
C     2.988087545     -0.3355664028     1.0826749055
C     1.8628595388     -2.431922509     0.3231316615
C     0.0946205487     -2.9115507147     2.0086601338
C     0.618978231     -3.0365082272     0.6821242881
C     -1.7970975301     -1.4719562647     2.6635328364
C     -1.2991994894     -2.4912398238     1.8551102179
C     -1.8566129739     0.8767487167     2.671316313
C     -2.4335538851     -0.3127188946     2.0476883609
C     -0.1505625268     2.4885575319     1.9629952732
C     -1.4817048616     1.9862310143     1.8304327159
C     1.8513765385     2.2339114854     0.8072923524
C     0.5666999369     2.8383729248     0.7340482371
C     2.899347637     0.2104778274     -0.2091066829
C     2.4095850734     1.6003413049     -0.3561973449
C     2.0168565829     -1.9572003005     -1.009088273
C     2.6312111799     -0.7049375829     -1.2844262611
C     1.0184725021     -2.192641982     -2.0552835492
C     -0.4851857558     -2.9333602304     -0.2751476554
C     -1.6297223243     -2.4934508279     0.4447558309
C     -0.2901154616     -2.5902958197     -1.6419045768
C     -2.8129108262     -0.3108980048     0.6944904817
C     -2.4953484115     -1.499709195     -0.1295142791
C     -2.09798677     2.0524758298     0.5502069989
C     -2.852949737     0.9642404012     0.0324742133
C     -0.0910508642     3.0364353476     -0.5116652943
C     -1.486757899     2.74061159     -0.5897554147
C     1.9042953397     2.0044169985     -1.6035291595
C     0.6978427077     2.8243844883     -1.6994689207
C     2.1559619612     -0.245902203     -2.5738466712
C     1.2003637755     -1.2249378426     -3.094819266
C     1.9101443444     1.1124377034     -2.7582100243
C     0.0985863567     -0.7994685723     -3.8870857161
C     -1.4101016737     -1.9911976223     -2.3237095058
C     -2.4584585957     -1.3559300339     -1.5268468176
C     -1.1999929899     -1.2327995107     -3.4929587102
C     -2.8617766337     1.071474089     -1.4120774292
C     -2.0667596043     2.2384270121     -1.7986292648
C     -2.7837498474     -0.0906037005     -2.1758281403
C     -2.0843854243     -0.0556094351     -3.4424299757
C     0.0625522568     2.5629368146     -2.9302372248
C     0.8316076158     1.5208134988     -3.6324730749
C     -0.0241293432     0.6112154178     -4.2122967022
C     -1.319656002     2.2275763824     -3.0086997081
C     -1.4077377949     1.0633145755     -3.8735012175


