56

 C     1.504441903     -0.0342902112     3.8295891079
C     0.6986912381     -1.1898592676     3.6563892129
C     1.2738052768     -2.0265350053     2.6207507012
C     2.5410206945     -0.0780477441     2.8922269652
C     2.4105893166     -1.2951779469     2.0956052299
C     2.6105597598     1.2089215739     2.2209304476
C     0.6961113588     1.1369971576     3.4671265292
C     1.3919211879     1.9572717602     2.5435882478
C     -0.6482672846     -0.7568332261     3.464996736
C     -0.6361111298     0.6990666256     3.2049503544
C     -1.4848821428     -1.5617307379     2.7384364386
C     0.4393084583     -2.7860057405     1.7660237379
C     -0.9718354934     -2.7509270774     2.0889303539
C     0.8105207028     -2.9427643804     0.3375561434
C     2.6704601306     -1.2526620478     0.7032020387
C     1.8523759663     -2.0735272678     -0.2192093928
C     3.0950351793     1.2208814624     0.9444208803
C     3.2590212118     -0.0267957523     0.2139666698
C     2.6171078055     2.2391271785     -0.0056234781
C     0.6784496093     2.6268812624     1.5084065399
C     1.4057024517     2.973864538     0.2786676464
C     -1.3637736467     1.2483904008     2.1183274355
C     -0.7587933584     2.3667622909     1.4058928643
C     -2.4914595463     -0.9639781153     1.8548095453
C     -2.3542141115     0.3891636622     1.4210865569
C     -1.9283700058     -3.0813339279     1.0988776919
C     -2.8820282661     -1.9568387555     0.9448315028
C     -0.2011972003     -3.4664044911     -0.5562698502
C     -1.5890622023     -3.5754938024     -0.134234044
C     -0.2555969434     -3.0082089637     -1.9014427013
C     1.7278315348     -1.6212408937     -1.608982302
C     0.5989620989     -2.024933086     -2.3801573392
C     3.119553432     0.3465917377     -1.136113576
C     2.8892056153     1.7644179261     -1.3008376838
C     2.2932716367     -0.3743416532     -2.0302069036
C     1.9331785352     1.9157203956     -2.3558054343
C     1.5917233266     0.58838325     -2.8622752295
C     0.6667023578     3.4133953366     -0.85719776
C     0.9390506354     2.8799499914     -2.2164937796
C     -1.4275020703     2.8107887927     0.2392837486
C     -0.7479347722     3.5417714082     -0.7707032228
C     -2.7523041664     0.6805395414     0.0508449684
C     -2.416293202     1.9666574218     -0.4417758198
C     -3.077887136     -1.7180981963     -0.4378496129
C     -2.41087175     -2.8341957215     -1.1212007774
C     -1.6350551717     -2.5813641723     -2.2146057834
C     -2.9861250549     -0.3966471649     -0.9339436499
C     -0.2062793017     -1.0070714122     -3.0922305843
C     0.2581516378     0.3144085252     -3.305227979
C     -1.5841907023     -1.2823892119     -2.8028155684
C     -2.3913203653     -0.20716876     -2.2843411653
C     -0.3398618866     2.6745493821     -2.8497545973
C     -1.3632278444     3.2394460193     -2.0570112139
C     -2.3285728335     2.2292447928     -1.8471061325
C     -0.7248562133     1.3545627543     -3.2972592425
C     -2.0148792495     1.0871095657     -2.6890434707


