56

 C     1.5490104348     -0.1071717244     4.6789995729
C     0.7408957098     -1.3017521799     4.7117601779
C     1.3663338147     -2.2963924627     3.9614651729
C     2.6476093079     -0.3500058561     3.6846694828
C     2.5418337182     -1.675202459     3.2386779294
C     2.6295194931     0.6910196794     2.70802505
C     0.7625516616     0.8908209856     4.1208577821
C     1.4693713085     1.509501035     3.0226539265
C     -0.5856833223     -1.03429091     4.1366463574
C     -0.585225398     0.3253856422     3.7604060092
C     0.4648527143     -2.7331979194     2.9601745316
C     -0.8056038115     -1.9922015844     3.0660049036
C     2.3798092671     -1.934115012     1.8426664011
C     1.1214666797     -2.6878321122     1.6999018134
C     2.8411343403     0.4134794131     1.3138074775
C     2.6629291189     -0.9496147576     0.8349688694
C     2.4582787934     1.4399189445     0.4195675051
C     0.7620645382     2.1968480972     2.0194289769
C     1.4676002177     2.4183890739     0.8132887207
C     -1.2134601828     0.7642237007     2.5604006789
C     -0.688128695     1.964697115     1.8908090932
C     -1.4326059424     -1.5962610022     1.8832116629
C     -1.8618000622     -0.2079674329     1.7052895427
C     0.3823816428     -2.5772999134     0.5286513989
C     -1.0105810319     -2.2121556265     0.6140785662
C     2.1247941502     -1.1570749025     -0.507965221
C     1.0911497869     -2.1619066675     -0.6696773613
C     2.2702413728     1.2178372682     -0.9823181764
C     2.1223038152     -0.1020994433     -1.5144065769
C     0.8185867199     2.9128435537     -0.3664885236
C     1.4563253561     2.2963777961     -1.5177719134
C     -1.2941340134     2.3569037739     0.7108796532
C     -0.5716645235     3.0162630797     -0.3810519515
C     -2.4229960679     0.192537001     0.4345206759
C     -2.3143387168     1.5530451512     0.0646227536
C     -1.712008795     -1.9401355717     -0.5828345134
C     -2.6064466712     -0.7826362478     -0.6526186801
C     0.3727516498     -2.2402847002     -1.8439722749
C     -1.086169019     -2.3857116868     -1.8053824615
C     1.4281924727     -0.255851687     -2.8046037066
C     0.6861710178     -1.4701723469     -3.0299097409
C     0.7762008751     2.147786086     -2.6995613043
C     0.9117902445     0.9202054288     -3.4861834113
C     -1.3020906163     2.8348652441     -1.606593281
C     -2.4444536156     1.9734439547     -1.309337469
C     -0.6072841115     2.6202187153     -2.8207201418
C     -3.0121249476     -0.3317845126     -1.9291815106
C     -2.9367005688     1.0898477022     -2.2712616296
C     -1.583027419     -2.0321000694     -3.0544104241
C     -0.4616858809     -1.5170883675     -3.871425703
C     -2.6302062301     -1.0654446416     -3.1446604014
C     -0.2309245287     0.8425726875     -4.3265345337
C     -1.2139060646     1.8538379112     -3.8442428962
C     -2.4328729476     1.1754298696     -3.6337625844
C     -0.9269358926     -0.3688253818     -4.5477861598
C     -2.3330911256     -0.1517217504     -4.1817721342


