56

 C     1.4152595662     -0.0456063139     3.9441466264
C     0.6048135111     -1.20645349     3.6571084582
C     1.2402188271     -1.9993983997     2.685813179
C     2.433776087     0.0141210297     2.9826720555
C     2.401107308     -1.1926043323     2.2086446233
C     2.3893993011     1.2913158373     2.2925779888
C     0.6131645229     1.1345207326     3.7733538985
C     1.3202624523     2.0530442244     2.9242610309
C     -0.7293535563     -0.7230405034     3.3630717733
C     -0.6996782345     0.7532253426     3.3920416292
C     -1.488543252     -1.3673082257     2.402254319
C     0.4538019909     -2.7480207701     1.7411982815
C     -0.9622019602     -2.4977683142     1.6713141445
C     1.0936072311     -3.1178625239     0.5496810185
C     2.6844889651     -1.1632771346     0.8413681522
C     2.2866317017     -2.3574619444     0.1328114648
C     2.5568006859     1.3493606492     0.8738069929
C     2.7429943122     0.1192957642     0.1001927797
C     1.9642811563     2.4743358975     0.2055960252
C     0.5657688726     2.943954957     2.1691189558
C     1.0734421872     3.3197498363     0.9070927725
C     -1.4609161777     1.5317170861     2.426086394
C     -0.8776873964     2.745850944     1.9886151659
C     -2.3791354223     -0.6279371453     1.5266723961
C     -2.3995715259     0.8096592486     1.5186938784
C     -1.6315773598     -2.5405020037     0.4077514375
C     -2.5343102882     -1.3964972283     0.3394066008
C     0.370795731     -3.4784576527     -0.6461454878
C     -1.0248696085     -3.0851941243     -0.7684546016
C     2.3658633573     -2.4008166848     -1.2353908503
C     1.2632826738     -3.2469809888     -1.7422071553
C     2.4096515039     0.1096765368     -1.3084105972
C     2.3680287351     -1.1682050355     -1.9881979355
C     1.4736788753     2.3868672229     -1.1681650438
C     1.6397627132     1.2191154627     -1.9225738629
C     -0.0311636347     3.6610040818     0.0215649142
C     -1.2345312067     3.3029623208     0.6784111909
C     0.2668347177     3.215619069     -1.2900971919
C     -2.8296094364     1.4282932478     0.3198640057
C     -2.2505005074     2.7141096045     -0.0942672165
C     -2.8645858591     -0.776968431     -0.9078597049
C     -3.0918056915     0.6474100047     -0.8763337241
C     -1.4753721026     -2.5583740634     -2.0418128914
C     -2.3531030828     -1.372478659     -2.091442899
C     0.8094516337     -2.6891706812     -2.9167605979
C     1.5037634142     -1.3753487531     -3.0849992409
C     -0.5586388293     -2.4454564683     -3.1208292339
C     0.6133650954     0.9299585435     -2.96795615
C     -1.8593634626     -0.5071387637     -3.1498291112
C     0.5544399879     -0.4124786372     -3.5091577599
C     -0.6939167555     -1.0918686213     -3.6662282222
C     -0.7957400567     2.7868764994     -2.0932776615
C     -2.0876302103     2.6697153817     -1.4959822354
C     -2.6832111706     1.4411914272     -1.9913388685
C     -0.6048996977     1.6468014536     -2.9702770083
C     -1.8768206716     0.8929234776     -2.9971969013


