56

 C     1.5077924483     -0.030926695     3.9929346605
C     0.6982902558     -1.2122792662     3.8973134056
C     1.3578547846     -2.1703569781     3.0560265237
C     2.6202550613     -0.1490799398     3.0831272171
C     2.5250748413     -1.4434783952     2.4743911823
C     2.6286875041     0.9981010812     2.2380782627
C     0.7325768896     1.0753187936     3.6019762124
C     1.4292160788     1.778027409     2.5765273088
C     -0.6597225482     -0.8240537085     3.626350004
C     -0.6215419593     0.6237607527     3.3112447135
C     -1.4325389882     -1.6842097787     2.8473269296
C     0.5684516813     -2.9815829283     2.2291673568
C     -0.8457398202     -2.8628061107     2.2974588482
C     0.8949360417     -3.1393381446     0.789164502
C     2.8042743426     -1.594546525     1.1046702925
C     1.9885588743     -2.4794642129     0.2698219572
C     2.9968924548     0.8796091215     0.8562850444
C     3.1020499781     -0.4507096466     0.2994935433
C     2.5476274274     1.8915956588     -0.0152450736
C     0.7146036622     2.4591744292     1.5698509468
C     1.4785827819     2.7964051573     0.4052636932
C     -1.3420503958     1.160036406     2.2301500999
C     -0.7245746287     2.2261530658     1.3940156431
C     -2.3297691062     -1.1198845448     1.8428560694
C     -2.3391711239     0.2774948195     1.5891824601
C     -1.3738992295     -2.994947166     0.9534213625
C     -0.3450934868     -3.1755703454     0.0118735938
C     -2.3922715649     -2.029491447     0.7181084102
C     -0.4650304188     -2.5971786714     -1.29778257
C     1.91393476     -1.9167202117     -1.0588108309
C     2.6652073373     -0.7059416126     -1.0703664679
C     0.7533605788     -2.0689601856     -1.8957738793
C     2.4236252936     1.700031895     -1.4541822147
C     2.3712370081     0.3584784216     -1.9789193178
C     0.8500423254     3.2582651972     -0.7462850809
C     1.4886814457     2.6443612064     -1.9212430189
C     -1.3423795551     2.6143926406     0.1380656038
C     -0.5382147249     3.1788698578     -0.9251492159
C     -2.9069504439     0.6582533137     0.3563314581
C     -2.5352649305     1.9246705198     -0.3047735981
C     -2.6554033233     -1.5922262304     -0.593363301
C     -1.7547179784     -2.013359687     -1.6878711987
C     -3.2417878706     -0.2894674716     -0.6575633964
C     -1.7985249348     -1.2566576836     -2.895435174
C     0.6544369519     -1.1576055842     -2.9827920546
C     1.4384528424     0.0927948854     -3.0219970357
C     -0.600784976     -0.9149859429     -3.568529858
C     0.5170223771     2.3736169206     -2.8998432147
C     -0.7758693589     2.8373280364     -2.3567069101
C     0.5928190528     1.1262672086     -3.5769911877
C     -0.6446319598     0.5076231472     -3.9660446967
C     -2.8662182432     1.8275181703     -1.6560211509
C     -3.2695948283     0.4296400035     -1.8913873241
C     -2.6515170765     -0.0623346547     -3.0102262613
C     -1.9424918116     2.187706516     -2.7123594863
C     -1.8687898146     1.0326691238     -3.6148137673


