56

 C     1.3430335056     0.0789479102     3.9597878728
C     0.5272088162     -1.0923244253     3.792895871
C     1.1223144275     -1.9453469936     2.8282967581
C     2.3466827879     0.0514354643     2.9633904069
C     2.2250518241     -1.1629031601     2.2263750003
C     2.2677858887     1.2712835814     2.1931397672
C     0.5248771819     1.2202944103     3.6846857492
C     1.1327433657     2.0455226964     2.6989302629
C     -0.8461337692     -0.6967757464     3.5978086453
C     -0.843679088     0.7846891123     3.5035230071
C     -1.6416990114     -1.4363477154     2.7293139844
C     0.3155306693     -2.7715912052     2.0032428359
C     -1.1063244118     -2.5872934399     2.0326408073
C     0.9077894479     -3.1754376065     0.7505188196
C     2.4657488677     -1.2000541474     0.8116644929
C     1.9492920777     -2.3154286494     0.124361092
C     2.5961694513     1.2976351478     0.8218458263
C     2.7060710709     0.0390910033     0.0557376699
C     2.1654880458     2.4672009474     0.1281330229
C     0.3173470967     2.7687917173     1.7663478557
C     0.9288718107     3.1472881905     0.5509595605
C     -1.6282649088     1.4073065167     2.5386231671
C     -1.0833031283     2.4660677808     1.7083519797
C     -2.5289213673     -0.7571426217     1.7839818342
C     -2.5210011402     0.6294356807     1.6954069085
C     -1.8675214527     -2.7619622297     0.8087117965
C     -2.6668903398     -1.5682502195     0.5947444957
C     0.1273414363     -3.6951032697     -0.2654286772
C     -1.3030226575     -3.4373761172     -0.2836145006
C     1.7473137922     -2.3126795329     -1.292201796
C     0.6827956719     -3.2463471443     -1.5500136147
C     2.4746424511     0.0567832829     -1.3740039358
C     1.8536441484     -1.1009307593     -2.037914972
C     2.257305364     2.5432669667     -1.2532468432
C     2.3524693729     1.347728407     -2.0410839965
C     0.184482165     3.462549364     -0.6386432199
C     1.0866753201     3.2725243804     -1.7393169337
C     -1.7592835877     2.444250108     0.4330591373
C     -2.5893984497     1.2616625906     0.401935804
C     -1.1749682128     2.9830700905     -0.7515109275
C     -2.8020909614     -0.9693178976     -0.6939374312
C     -2.7670994889     0.5003647452     -0.7964654542
C     -1.6045942084     -2.947771092     -1.5843506389
C     -0.3566681277     -2.8935073453     -2.3778521114
C     -2.2896435592     -1.7402229849     -1.8034308426
C     0.8494370581     -0.8643490327     -3.09553464
C     -0.3170834507     -1.687033013     -3.115759087
C     -1.624717378     -1.0528498304     -2.9091808819
C     1.532624536     1.5222040259     -3.2010802106
C     0.6910321504     2.7087117883     -2.9407358048
C     0.6501711759     0.4847787147     -3.5756272715
C     -1.5875980355     2.3827676056     -2.0002128369
C     -2.3058764776     1.1230024949     -1.9924174258
C     -1.7610645692     0.3056467366     -3.0863227318
C     -0.6640691362     2.3282442581     -3.1036069418
C     -0.6910240799     1.0158004908     -3.6849207338


