56

 C     1.4911877467     -0.1635415625     4.3014276627
C     0.721175034     -1.2755803382     4.3190265787
C     1.2536555002     -2.2911227362     3.4074390933
C     2.5099139057     -0.3772721965     3.2355570499
C     2.302118394     -1.6932808919     2.626652117
C     2.4434164388     0.708086233     2.3953321529
C     0.6295878179     0.9512351583     3.8721248281
C     1.306771757     1.5866575495     2.852678875
C     -0.6624015952     -0.949222094     3.8750271931
C     -0.6943048976     0.4411037598     3.5100224729
C     0.141355585     -2.837593712     2.7464416488
C     -1.0304231114     -1.908228717     2.9365465872
C     0.3392913151     -3.3688024304     1.4864171197
C     2.2708554264     -1.8346407463     1.1688456895
C     1.4403909661     -2.862705582     0.6621384735
C     2.6522543327     0.6034091707     0.960439246
C     2.4999530945     -0.6630721398     0.2796178368
C     2.4083006957     1.7802995098     0.2627924526
C     0.6033597422     2.3185679899     1.880214918
C     1.4397783191     2.7673909215     0.832963411
C     -1.3187610672     0.8453944786     2.2675657762
C     -0.7785922513     2.0168878162     1.586439629
C     -1.8307531063     -1.55217836     1.7860752236
C     -2.0086774217     -0.1414192067     1.4431100887
C     -0.7831045707     -3.4749612254     0.6473681241
C     -1.8462892878     -2.5268093523     0.7470133496
C     0.9800832864     -2.8562379033     -0.7098586001
C     -0.3349526219     -3.4105202278     -0.7172618294
C     2.0657585788     -0.6365841346     -1.1252601108
C     1.3137129291     -1.7966353628     -1.6301287429
C     2.2536441011     1.829709199     -1.1484509322
C     1.9632965346     0.6274184426     -1.8746601603
C     0.8835951124     3.4727168179     -0.1936099756
C     1.5542987134     3.0639027302     -1.4498204753
C     -1.3232446359     2.4721668258     0.3210301964
C     -0.5336202394     3.4278442023     -0.4243309022
C     -2.4426824984     0.2311200943     0.0839182782
C     -2.2410208354     1.5828709792     -0.4041900112
C     -2.2359446372     -2.1545289928     -0.5973154069
C     -1.3313435653     -2.8443446376     -1.5215403687
C     -2.6693727551     -0.8522840492     -0.9062913571
C     0.4457522767     -1.6254278246     -2.7375556775
C     -0.9140665985     -2.1959179957     -2.6736989736
C     1.0930539532     0.7663262654     -3.0877738087
C     0.3606036747     -0.3918686317     -3.4993046568
C     0.6599419029     3.147570134     -2.4627984203
C     -0.661272506     3.520367826     -1.8537054898
C     0.4541640428     2.0559535596     -3.3782420948
C     -2.4606323934     1.8530472325     -1.8345551403
C     -1.6091167514     2.8199106705     -2.5245481043
C     -0.9528798223     2.1000311322     -3.6552154134
C     -2.6736561205     -0.5407771008     -2.3258839946
C     -1.7821768303     -1.248719295     -3.2094123863
C     -1.008252798     -0.2684193273     -3.9498456909
C     -2.676473393     0.805142896     -2.7413372134
C     -1.677254866     0.9475651699     -3.8576301348


