56

 C     1.3126698972     -0.0641712398     3.4263697005
C     2.4623128325     -0.4065565879     2.7136458366
C     2.3494383174     -1.7772645421     2.3401289923
C     0.4686781172     -1.2634699304     3.5684247541
C     1.056660025     -2.2854295592     2.7623072182
C     -0.8651953302     -0.8598784919     3.4116522068
C     0.513690059     1.0533482967     3.0890680168
C     -0.8692832923     0.620826994     3.2885703616
C     0.8700985991     1.9247548008     2.0010916938
C     2.8354719033     0.3798915808     1.567890339
C     2.1157016349     1.5912650604     1.2704109013
C     2.8074734984     -1.8741317936     0.9859677897
C     3.197922607     -0.5283871186     0.5174051261
C     2.1597766791     -2.7264623182     0.1196114868
C     0.2439291363     -2.9782314543     1.7990931594
C     0.8776530355     -3.3456727577     0.5435372869
C     -1.7275603022     -1.601005307     2.5768148102
C     -1.1585417046     -2.6497420013     1.7455216268
C     -2.7392243963     -0.9108739323     1.8192735713
C     -1.8667197521     1.263589537     2.6325966902
C     -2.9379713597     0.4767285949     1.9831684372
C     -0.2054357388     2.6558323703     1.327231015
C     -1.5564502648     2.4107260668     1.7728653105
C     -0.0176111861     3.1461607907     -0.0555580548
C     2.2680695369     2.0510944427     -0.0491390587
C     1.2609223909     2.9183152795     -0.6885936835
C     3.1116954842     -0.1522678587     -0.8475163837
C     2.8935290362     1.2493390622     -1.0646481046
C     2.0881260427     -2.3805874963     -1.3015100196
C     2.5679208482     -1.1182521121     -1.8170288151
C     0.1118292238     -3.4280780138     -0.6193092787
C     0.8643458543     -2.8920909466     -1.7568757696
C     -1.8614060344     -2.5809963576     0.4827983245
C     -2.7722715027     -1.4699703221     0.4823120678
C     -1.2202462968     -2.9356438303     -0.7061651912
C     -2.9398435611     -0.6421378716     -0.6806196476
C     -3.3845582255     1.2200937178     0.8971225052
C     -2.6236832705     2.4953460141     0.8519860525
C     -3.3910315759     0.6974981162     -0.4370832965
C     -1.1413945247     3.2177673427     -0.9446277039
C     -2.4410528709     2.8719636297     -0.4663249477
C     -2.9017253179     1.7561273222     -1.2690789157
C     -1.0301508992     2.6523481513     -2.2919961845
C     -2.009627104     1.5634972743     -2.3529793006
C     1.3830429398     2.7810881165     -2.0741443953
C     2.3674463898     1.7122550071     -2.314453115
C     0.2145569449     2.4832688667     -2.8646681622
C     1.8492974076     -0.598794996     -2.9424429501
C     1.8499076154     0.8124349389     -3.2180995323
C     0.4791915538     1.2501429947     -3.5489237105
C     -0.0165054734     -2.1415900296     -2.5672606511
C     -1.3195248148     -2.0774328944     -1.8786771487
C     -2.099200735     -0.8972848996     -1.8755859586
C     -1.6238061674     0.2361027631     -2.7118813397
C     0.4987833683     -1.0389894866     -3.2181165124
C     -0.3601193075     0.1335870276     -3.413557399


