56

 C     1.5747031107     0.0526177855     4.2176742426
C     0.73273673     -1.1587607292     4.1929712739
C     1.3720165217     -2.1117767038     3.3993725091
C     2.6035676133     -0.1006625496     3.2304510153
C     2.5495014505     -1.4355386978     2.7974773137
C     2.4191914103     0.9430017912     2.200896553
C     0.7522056028     1.1087574692     3.8111507857
C     1.3108629055     1.7517674562     2.6273930957
C     -0.6315621668     -0.7849621744     3.8855789927
C     -0.6335811498     0.6786503172     3.7645982916
C     -1.343407181     -1.5122745962     2.9055974505
C     0.6896670624     -2.7597229573     2.32354434
C     -0.6764945076     -2.5220659824     2.108346025
C     2.6088677769     -1.7520091627     1.4311750875
C     1.5343830732     -2.6835824406     1.1386021924
C     2.6164633875     0.6798024783     0.8136046468
C     2.8880017657     -0.7169875557     0.4637632606
C     1.9587146878     1.5214532619     -0.1948243026
C     0.4712457503     2.374312884     1.6811918026
C     0.9173714513     2.4355113129     0.2757877526
C     -1.4574447372     1.3048665997     2.8571154659
C     -0.9405058832     2.3310938733     1.9601372658
C     -2.2791168474     -0.8363506914     2.0124840874
C     -2.4176886488     0.5462748347     2.0683103805
C     -1.2116486668     -2.4494905357     0.7429029471
C     -2.2505586542     -1.4679904305     0.7042552918
C     1.0205798955     -2.7888883673     -0.1649335314
C     -0.4263129307     -2.6852573163     -0.4117808783
C     2.7006376974     -1.0951069311     -0.8539254039
C     1.8828224056     -2.2659423779     -1.1656878575
C     1.9969085132     1.1595167908     -1.6225110072
C     2.5076355533     -0.1473358413     -1.9219743005
C     1.0758450318     1.7750344468     -2.6128014176
C     0.0105213948     2.9467200273     -0.6722566943
C     0.1123448466     2.7057883136     -2.1001749444
C     -1.8414225884     2.4510860271     0.8773265809
C     -2.7008555243     1.2715998085     0.8610428891
C     -1.4117400935     3.0089689303     -0.3230597502
C     -2.5937986639     -0.7858185133     -0.5021446164
C     -2.9728566751     0.6350013124     -0.3753714129
C     -0.9161486303     -2.2139719472     -1.7051931703
C     -2.0469679015     -1.2846575764     -1.7530554498
C     1.4284801325     -2.1382313729     -2.4713884172
C     1.9947700757     -0.8882885553     -3.035340433
C     0.0518091809     -2.1719883399     -2.7923741687
C     0.6635912039     1.0102034594     -3.795783021
C     1.0959612757     -0.3530400895     -3.9091404641
C     -0.1061875804     -1.2425305299     -3.893375104
C     -2.2149840541     -0.4367438977     -2.9426915543
C     -0.7292357968     0.9671864799     -4.1605347385
C     -1.1952101214     -0.4377725361     -3.9873574431
C     -1.2302653573     2.734101355     -2.6230985628
C     -2.1305468365     2.6943430467     -1.480140339
C     -2.8887737148     1.4764008516     -1.5377750346
C     -1.6574367816     1.7702620491     -3.5369767841
C     -2.6366458133     0.8933964369     -2.807060738


