56

 C     1.4215160463     0.0652617422     4.2233327931
C     0.6554625037     -1.1486302243     4.0830457943
C     1.4231163137     -2.1290449486     3.4082264741
C     2.581981604     -0.0896967763     3.3808990364
C     2.6094310867     -1.4230762577     2.893492958
C     2.588825006     0.9434333118     2.393408133
C     0.6425953311     1.0917476007     3.6286851037
C     1.3711855853     1.7392043386     2.5937293624
C     -0.670826889     -0.8380093736     3.5811017773
C     -0.6678226606     0.5948109797     3.2558589078
C     -1.2774448747     -1.7250313476     2.6886937962
C     0.8596583346     -2.8723173118     2.3375323107
C     -0.5252166623     -2.808957524     2.0813200435
C     2.7586766013     -1.7258012475     1.5100861279
C     1.7642982374     -2.7398815905     1.1847045318
C     2.9966990757     0.6860565664     1.0565044619
C     3.0318347951     -0.690678178     0.5472448366
C     2.6522809724     1.713946866     0.1372997772
C     0.6864179054     2.3508994432     1.5026386634
C     1.4638709315     2.5823370814     0.3641390355
C     -1.375489586     1.107974936     2.1420649189
C     -0.7663930698     2.1397739659     1.2978817331
C     -2.1903131628     -1.2108821538     1.6966507595
C     -2.3345557471     0.2033071798     1.511043393
C     -1.0264073932     -2.9319991536     0.7229906341
C     -2.1738490484     -2.0578931821     0.5430751622
C     1.2724194276     -2.8539380043     -0.1018626773
C     -0.1473611148     -3.0513103728     -0.3487760329
C     2.6464293636     -0.9217882001     -0.852829136
C     1.769274668     -2.0042773716     -1.1493182419
C     2.7091442475     1.503269914     -1.2278615827
C     2.5801251707     0.1933700912     -1.7659804529
C     0.8865762451     2.9340856135     -0.9040757851
C     1.715684787     2.3505902437     -1.8910442642
C     -1.3660889474     2.5123314663     0.0361271232
C     -0.5368987096     2.9724470914     -1.0956588962
C     -2.9403406198     0.6041036589     0.3244759877
C     -2.6155976887     1.8747720751     -0.3128364547
C     -2.5932477539     -1.5982514693     -0.7305919676
C     -3.2777366699     -0.3385733114     -0.7239498174
C     -0.465775121     -2.4520990679     -1.626874135
C     0.7308134159     -1.8742582616     -2.1564890375
C     -1.7526710712     -1.8770277363     -1.9035003981
C     1.6390445366     0.266155092     -2.8688064735
C     1.1811080817     1.6674312862     -2.9859278393
C     0.6678532266     -0.7549440945     -3.0437979722
C     -0.9780110282     2.7383960263     -2.4435897477
C     -0.1254934739     1.9922738095     -3.3535816841
C     -3.1025011319     1.8305610064     -1.6369269034
C     -3.4730461533     0.400935316     -1.9103069417
C     -2.3301219529     2.2673716765     -2.714849474
C     -1.8321432478     -1.0019996262     -3.0285676578
C     -0.6328194881     -0.4157380733     -3.5768553848
C     -0.9529979342     0.9546991166     -3.9425542067
C     -2.8665350162     0.030544132     -3.104033219
C     -2.3086173137     1.2240132218     -3.7248072726


