56

 C     1.5006813868     0.1124639795     4.2304347522
C     0.6569220109     -1.0388495588     3.964431909
C     1.3814208206     -1.937247482     3.1906274955
C     2.6211643148     0.0262713062     3.3075423081
C     2.6145342469     -1.2384283353     2.7087896491
C     2.6512133735     1.1888417344     2.4397871521
C     0.7758595052     1.2373381017     3.8140312122
C     1.5734977987     2.0381372891     2.9071997827
C     -0.6279581794     -0.5749540418     3.4122658335
C     -0.5429986276     0.8588100554     3.336730322
C     -1.3141762738     -1.3085899575     2.4069956488
C     0.7792639097     -2.5851408269     2.1006024712
C     -0.6282694063     -2.4860159565     1.8631321013
C     2.6344340774     -1.3933973092     1.3039522715
C     1.6413364379     -2.4015351575     0.9535032978
C     2.8554255755     1.0533097114     1.0161749446
C     2.8070331928     -0.2795509985     0.3972913732
C     2.3917499994     2.1574993086     0.2240323848
C     0.9045230482     2.8861740003     2.035514668
C     1.4981629771     3.1053882203     0.7872885695
C     -1.2067465677     1.5919151238     2.2816562512
C     -0.5462293568     2.7476635807     1.7803326022
C     -2.2366648231     -0.5824710353     1.5155103117
C     -2.1511429009     0.8701035338     1.4233510182
C     -2.7863846495     -1.2914516976     0.4002704491
C     -1.030972658     -2.9950423135     0.6141576702
C     -2.2332783792     -2.5426547966     0.0210014183
C     1.1878389893     -2.5788638333     -0.3620035117
C     -0.110895781     -3.1469809122     -0.4880682515
C     2.3545217357     -0.4498143949     -0.9743951317
C     1.7125722543     -1.692851274     -1.4060158259
C     1.9704774673     1.9862125995     -1.1372260654
C     2.0595303591     0.7520051468     -1.7923821794
C     0.4750401048     3.453791723     -0.1937373561
C     -0.7947174818     3.1997151512     0.4287210578
C     0.7895841714     2.8729396319     -1.4069442405
C     -2.5126184397     1.4737879854     0.1748958861
C     -1.7792819625     2.5873798045     -0.3453354076
C     -3.1617250216     -0.6487834526     -0.8506542564
C     -2.9855068434     0.7114158939     -0.9698487547
C     -2.2111007356     -2.6987143583     -1.418339724
C     -0.8563621235     -3.0292679249     -1.7373462498
C     -2.7913845587     -1.5291685218     -1.984319583
C     1.0593957253     -1.7511741161     -2.6649665755
C     -0.2299889753     -2.4265709434     -2.8248953753
C     1.3213023137     0.6381172393     -3.020264311
C     1.0485257674     -0.6232713786     -3.5737271881
C     -0.2402392157     2.4456470569     -2.3030328141
C     -1.5759848215     2.3661670384     -1.7787772594
C     -2.4435431258     1.2993183826     -2.1986493669
C     0.1481007091     1.5037634284     -3.2935408461
C     -2.263308588     -0.9753774173     -3.1602107309
C     -1.0323005169     -1.5598504033     -3.6778593548
C     -0.2185995285     -0.5694400676     -4.2596038338
C     -2.0874198919     0.4708742191     -3.2739018824
C     -0.8143128491     0.7004072392     -3.9441787559


