56

 C     1.1289651362     -0.0715788974     3.807362957
C     2.2567088676     -0.3814455965     3.0661912442
C     2.2041913539     -1.7706596493     2.5960616657
C     0.2791000934     -1.2646277898     3.7192147717
C     0.9002214849     -2.2517487718     2.8496485279
C     -0.9955774402     -0.8414039052     3.4214495997
C     0.3227778764     1.0906033909     3.4361909251
C     -1.0094589899     0.6299113345     3.3802321527
C     0.7658887527     2.0384276573     2.4423528036
C     2.6591227761     0.4422151029     1.9714163817
C     2.025508846     1.7155417377     1.7502860322
C     2.7342176495     -1.7895002768     1.2720220682
C     2.994573451     -0.4136891635     0.8587157547
C     2.2157499095     -2.6675685486     0.3608161784
C     0.147663503     -2.8696154862     1.7756874527
C     0.9445874296     -3.329654201     0.6754373744
C     -1.7112901242     -1.3145575251     2.2732568335
C     -1.1937871283     -2.3669988324     1.4397204779
C     -1.877064703     1.0332603583     2.351917116
C     -2.3752455142     -0.1765779082     1.6938405139
C     -0.2536111183     2.7835325865     1.701319829
C     -1.6084086637     2.2105355365     1.6235244776
C     0.1723953587     3.5703496582     0.5691221275
C     2.2237450947     2.2299942166     0.4523057836
C     1.4256657528     3.287718601     -0.0136837362
C     2.7542930785     -0.0205484246     -0.4958291409
C     2.4999150453     1.3500693805     -0.6854222951
C     2.1568216296     -2.3296655748     -1.0718824344
C     2.2790625583     -0.9742902923     -1.5050880427
C     0.3417181591     -3.6610183396     -0.5393208878
C     1.1908290671     -3.1929605564     -1.6460104878
C     -1.7158880166     -2.4564195891     0.0665174638
C     -1.0068447024     -3.3014611322     -0.8628018933
C     -2.7729955875     -0.1554961808     0.3445463696
C     -2.5250302586     -1.3409519949     -0.484478936
C     -2.3653995528     2.3225636817     0.4044483551
C     -2.9165682507     1.1479426317     -0.2277497282
C     -0.7257863607     3.8666110081     -0.5461664887
C     -1.9539492003     3.2312246358     -0.6172801642
C     1.2375956898     3.1194507322     -1.4638474423
C     1.7668006859     1.8370602011     -1.8242514675
C     -0.0409577012     3.5061817833     -1.7929683816
C     1.4024008528     -0.4943632633     -2.6022240018
C     1.0411930947     0.9306431953     -2.6740321356
C     0.3881909036     -2.7794292939     -2.6898843293
C     -1.001399756     -2.9925095274     -2.2701321847
C     0.5029096031     -1.4419415707     -3.2133593629
C     -2.5237539798     -1.1241423077     -1.8960878895
C     -1.7349702738     -1.9288519561     -2.7553295413
C     -0.8381600255     -1.0118679555     -3.4762374295
C     -2.7835122564     1.32551438     -1.6707442547
C     -2.1198592874     2.5643680413     -1.9139974152
C     -0.864675064     2.5863014209     -2.5621605628
C     -0.3089271559     1.3516551431     -3.080125833
C     -2.4734427231     0.2419460568     -2.4452374498
C     -1.2662498792     0.3019220388     -3.2772713404


