56

 C     1.5654317148     0.0775372929     3.8834678562
C     0.7304456406     -1.1321206323     3.7061126979
C     1.3109271791     -1.9596962969     2.7238640644
C     2.6046192298     0.0491201807     2.9825076134
C     2.580010584     -1.2794165017     2.3674898653
C     2.4745942377     1.2207421328     2.094129027
C     0.7270555435     1.2225533304     3.6474498257
C     1.2717723016     1.9342178451     2.5236758741
C     -0.6252617295     -0.7124171411     3.6125021988
C     -0.6165642904     0.7657424384     3.5819649059
C     -1.4553399867     -1.3862220809     2.7138336193
C     0.4958201938     -2.532921491     1.6668012419
C     -0.9049730099     -2.3257665642     1.7656187927
C     1.0724634354     -2.7480043037     0.3218202456
C     3.0322354245     -1.3841097641     1.1083310248
C     2.4364957252     -2.3367529218     0.1543595591
C     2.8048819751     1.114176847     0.7377301008
C     3.4032846418     -0.1673504905     0.3370485588
C     2.0578758217     1.8755902986     -0.2853065042
C     0.4222507123     2.5148684692     1.5507936916
C     0.8814381665     2.613817414     0.1596810585
C     -1.4972944952     1.4259741581     2.7123815541
C     -1.0010498902     2.3953221923     1.7867502857
C     -2.5492765489     -0.6924340365     2.0535214977
C     -2.5929371368     0.704081127     2.0707449132
C     -1.7545540312     -2.3104526486     0.5793321863
C     -2.8330492496     -1.3784457963     0.8131347542
C     0.2127444093     -2.7603411321     -0.8722582439
C     -1.2332936393     -2.5247320094     -0.7250659229
C     0.791767238     -2.4264628521     -2.1492794051
C     2.9350292708     -1.9565557418     -1.0948138652
C     3.4321039088     -0.5469964856     -0.9767673581
C     2.1471741448     -2.0190292201     -2.2247734556
C     2.1525121861     1.4585926354     -1.6930001869
C     2.842882802     0.2304230417     -2.0268961447
C     2.2014876005     -0.7025948939     -2.8841740622
C     1.1069473561     1.822097935     -2.6006122729
C     -0.1028981799     2.9917026645     -0.8143360137
C     0.0679931518     2.6623204856     -2.1580519245
C     -1.960369758     2.4868477418     0.7041892127
C     -2.9628453988     1.4301526806     0.8704867205
C     -1.5523483218     2.8749536575     -0.5463183219
C     -3.418601163     -0.6914671565     -0.2569352219
C     -3.4707145097     0.7748553427     -0.2413400804
C     -1.979680817     -1.9360447306     -1.8181411684
C     -3.0763676387     -1.091743071     -1.567094598
C     0.0609325204     -1.5857629107     -3.109186492
C     0.9474523778     -0.4639909256     -3.4872168117
C     0.4641837777     0.8371804565     -3.482774925
C     -1.2805254966     -1.3662203385     -2.980886277
C     -1.2245383492     2.23733068     -2.7407098768
C     -2.2124451233     2.3260873043     -1.7353820974
C     -3.1326834     1.2525786986     -1.5853737628
C     -2.9547970609     0.1083356161     -2.410295661
C     -0.9862106345     1.0612825481     -3.4781473543
C     -1.8561934425     -0.0504330775     -3.2845849678


