56

 C     1.5687858464     -0.1283208797     4.4331458104
C     0.7540252158     -1.2355694323     4.3696834101
C     1.2347305963     -2.1006754489     3.3372187669
C     2.5730858173     -0.2406305871     3.3298374857
C     2.3423807935     -1.4856464881     2.6310902504
C     2.539602722     0.9281918388     2.5766911123
C     0.7614448909     1.0131469591     4.1119384765
C     1.4874862268     1.8177297618     3.2084552317
C     -0.6059800024     -0.8034947947     3.9156795075
C     -0.6050338178     0.6092129093     3.7565378315
C     0.1032021129     -2.5691126613     2.6011114157
C     -1.0208207456     -1.6203149347     2.847078637
C     0.32805384     -2.9417121851     1.322032853
C     2.3674904182     -1.5423960886     1.1923562081
C     1.5546763196     -2.5575527069     0.6076714171
C     2.6429014601     0.9244161884     1.1223875272
C     2.5669994504     -0.3297226225     0.3794952389
C     2.2285648478     2.1168007367     0.4632444603
C     0.778029215     2.6500679959     2.3916851344
C     1.3815996252     3.0800695334     1.168105553
C     -1.2391680254     1.1953769787     2.6028383755
C     -0.6501889317     2.4115127696     2.1332982909
C     -1.7348885969     -1.093219726     1.7130860984
C     -1.9046805987     0.3431631261     1.595800194
C     -0.742327141     -2.8863383473     0.3668848865
C     -1.7657272354     -1.9127863639     0.4951310968
C     1.2387079649     -2.5781637367     -0.7574981489
C     -0.1349249261     -3.0956128737     -0.9004862108
C     2.1794473174     -0.319301385     -1.0402834819
C     1.6535974508     -1.5361844531     -1.6578738523
C     1.8564596748     2.1138442699     -0.923758045
C     1.8387506618     0.9374354102     -1.7123044948
C     0.3625245851     3.4194597022     0.2883308836
C     -0.9059653204     2.8908899117     0.8301624488
C     0.7435919127     3.0538645026     -1.0361821738
C     -2.2683227574     0.8932702191     0.2774958937
C     -1.7982614973     2.2404695707     -0.0513944229
C     -2.3761405804     -1.4214591784     -0.7357213168
C     -2.6911305883     0.0093427131     -0.8190156986
C     -0.8495957092     -2.8803847232     -2.0311404114
C     -2.1080155289     -2.1529116409     -1.9456337225
C     0.9976465545     -1.5138169255     -2.9238153884
C     -0.1212632778     -2.4011629535     -3.1911189307
C     1.0040281527     0.9580669053     -2.9563787157
C     0.7241175569     -0.2626252758     -3.6395372357
C     -0.2519762789     2.8359852176     -1.9334568086
C     -1.6307027651     2.5935060576     -1.4419272999
C     -0.0151778395     1.9949484462     -3.0753221468
C     -2.8401470782     0.5680243949     -2.1536613694
C     -2.2324161232     1.8414997045     -2.4169727956
C     -1.3086732797     1.6734855848     -3.5762562623
C     -2.2659673289     -1.5485003174     -3.2460199329
C     -1.0276045228     -1.7453792213     -4.0199748885
C     -0.5100376627     -0.4521082028     -4.3824633371
C     -2.6373030367     -0.2208074799     -3.3380649436
C     -1.5694900336     0.4621301863     -4.1622124313


