56

 C     1.1780914564     -0.0885523008     4.0657500732
C     2.2901255066     -0.2756838032     3.2761188765
C     2.1389100721     -1.5702269576     2.6051510658
C     0.33950469     -1.3094119209     4.0189541361
C     0.8208985779     -2.1072061247     2.9310654452
C     -0.9941586911     -0.8865869823     4.0272618877
C     0.3118697336     1.0666150791     3.8676670473
C     -1.0376149978     0.607107967     3.9093714534
C     0.6562922469     1.9862609785     2.8508043593
C     2.6784876371     0.6820709394     2.2689086862
C     1.9115358851     1.8438013731     2.0893972775
C     2.5428825735     -1.4413063193     1.2996185207
C     3.0269035221     -0.0498364347     1.0831842797
C     1.8301717558     -2.1173270679     0.2332025111
C     -0.0610736279     -2.527865237     1.8546613832
C     0.4548958395     -2.5763971791     0.4632472897
C     -1.9070287094     -1.4272831806     3.1405403439
C     -1.4514873268     -2.2372754032     2.0452148307
C     -1.9849390502     0.9485302781     2.9208724595
C     -2.633891615     -0.3019753268     2.531531281
C     -0.3511866591     2.4705157539     1.9366213075
C     -1.6555456293     1.8892390353     1.8757693973
C     1.6952482473     2.353661565     0.7605520725
C     0.3247529652     2.85105529     0.7143665287
C     2.9507732387     0.5033265218     -0.1930745915
C     2.2713702717     1.7866672476     -0.4022037954
C     2.2414856497     -1.7608277234     -1.0412739713
C     2.9130724053     -0.463005656     -1.2604639129
C     1.4658111941     -2.0516583526     -2.2219842893
C     -0.4378337397     -2.5325146128     -0.6738128573
C     0.0774184104     -2.3662084311     -2.0563724032
C     -2.2294085362     -1.8554494978     0.8922282068
C     -2.9095737961     -0.5845733798     1.2172879367
C     -1.8160769608     -2.1031128642     -0.4071493069
C     -2.2831229094     1.7323248266     0.5472403066
C     -2.9540110938     0.4660437709     0.2330276438
C     -0.3439531901     2.8979417439     -0.4774195972
C     -1.7111140027     2.3969079244     -0.5647555993
C     1.642395783     2.0481857036     -1.7134869022
C     0.3341730324     2.6237878484     -1.7266578478
C     2.6351506576     -0.0750617784     -2.547070071
C     1.9156401985     -1.1512594993     -3.2468149432
C     1.9777675227     1.1988861397     -2.8323656218
C     0.9989424524     -0.5455285067     -4.0862872075
C     1.0324698923     0.9336559905     -3.845868309
C     -0.8076347041     -1.8642898486     -3.0947524864
C     -0.3318697447     -0.9764865269     -4.1131684148
C     -2.5335729324     -1.3463971702     -1.4145146964
C     -3.0268020348     0.0192848198     -1.0844433928
C     -2.1291081311     -1.3647517378     -2.7261176803
C     -1.9243622718     1.9966966573     -1.9311101349
C     -0.6703054695     2.2096960273     -2.6778666383
C     -0.3200374551     1.3791639376     -3.766863777
C     -1.1785916184     0.2384643973     -4.0595722432
C     -2.6835998618     0.8485901679     -2.205822348
C     -2.2891366385     -0.0204221601     -3.2883235786


