56

 C     1.5554753089     -0.1986404401     4.1957188528
C     0.7550104643     -1.3476657391     4.3752579295
C     1.1994737171     -2.3158889402     3.4440045571
C     2.4823226331     -0.4379903149     3.087386056
C     2.2842392833     -1.7428302329     2.607038896
C     2.4153562459     0.677826344     2.1457148457
C     0.7204624912     0.845610067     3.7177606907
C     1.3451963175     1.5312266491     2.6228485177
C     -0.6103592241     -1.0048605689     3.9188099075
C     -0.6502035521     0.3772555846     3.5580486524
C     0.0778295325     -2.8748056141     2.7617432923
C     -1.0846562927     -1.9541044384     2.981908889
C     0.2786721563     -3.3874041863     1.5035176653
C     2.3213824396     -1.9982556349     1.1862075441
C     1.4831021216     -3.0360732661     0.7043924395
C     2.5697883875     0.5028436627     0.76130163
C     2.641333891     -0.8792093057     0.2577799135
C     2.0903888143     1.5889331701     -0.1152263132
C     0.5639685921     2.2358145547     1.7171270613
C     1.1661185299     2.5514848119     0.4383046003
C     -1.3739501207     0.81066231     2.4182258273
C     -0.8832517716     2.0110308901     1.7488229893
C     -1.8792093807     -1.5504454647     1.8574420785
C     -2.1153156431     -0.1348860069     1.5990737964
C     -0.8164931047     -3.3931220282     0.5993864458
C     -1.8696276648     -2.4367890233     0.7112114969
C     1.0811629039     -3.0827900184     -0.6778383333
C     -0.3273102751     -3.3809477201     -0.7452353565
C     2.3807824965     -1.0551353597     -1.1086947891
C     1.59653931     -2.1669623669     -1.5939698772
C     2.0875703787     1.4057494261     -1.5608097468
C     2.1676691375     0.0613942132     -2.0233230252
C     1.3759040358     2.3465659585     -2.4119749968
C     0.3845986558     3.3714626983     -0.4276944494
C     0.5854534057     3.3665417392     -1.822090586
C     -1.6371094657     2.5071734535     0.6889498446
C     -1.0414618232     3.397711036     -0.2327203284
C     -2.6067095658     0.299920902     0.2748093962
C     -2.559259914     1.661154435     -0.0573831086
C     -2.1295544021     -1.9597307634     -0.6110207877
C     -1.1735297037     -2.6004956713     -1.5455639728
C     -2.6059705688     -0.6518171029     -0.8612533468
C     0.7834060313     -1.6739754324     -2.6811243582
C     1.3048361675     -0.3949835451     -3.0823497161
C     -0.6492258231     -1.8440323906     -2.619744641
C     0.6510870606     1.8868612818     -3.573098716
C     0.4927250068     0.5183137658     -3.8005196613
C     -0.732255592     3.4499788539     -2.5154782998
C     -1.7157848537     3.3257466529     -1.506983781
C     -2.574179687     2.1668490039     -1.4429878885
C     -0.7017699853     2.5240687111     -3.5556740758
C     -2.4651604944     -0.1591294801     -2.1881648709
C     -1.4775402284     -0.7659128616     -3.0874133327
C     -0.9486542696     0.2577369504     -3.8775210607
C     -2.5481156747     1.253819834     -2.5198296327
C     -1.6651964051     1.4951469474     -3.6371047531


