56

 C     1.2938527775     0.1924448767     3.9465170224
C     2.4039585281     -0.0177805846     3.1112234999
C     2.4205657915     -1.3764161931     2.6662146846
C     0.4446484692     -1.0001344436     3.8328806092
C     1.0917805854     -1.8891137881     2.9327709473
C     -0.8640585089     -0.5512881638     3.508753058
C     0.4743385046     1.3021112442     3.6794841673
C     -0.8945874558     0.8912047133     3.6425058314
C     0.7310481403     2.2249885907     2.5809076553
C     2.7263186697     0.8601899764     1.9933140935
C     1.8833969495     2.0050764012     1.7382526749
C     2.9213284958     -1.372801526     1.338125983
C     3.1238753163     0.0249135902     0.9024315891
C     2.4216817879     -2.282364799     0.4418169711
C     0.3598433495     -2.5681986594     1.8716137948
C     1.1548556952     -2.9800991541     0.7683509427
C     -1.6539771444     -1.1907130347     2.4646680083
C     -1.0504724728     -2.2336478765     1.6209894494
C     -2.6622091489     -0.3691739254     1.8924498185
C     -1.5380472759     1.6774797697     2.6513780916
C     -0.5311824056     2.5250337232     1.9788181958
C     -2.534873813     1.107994581     1.9014858858
C     -0.6739433695     2.8650458065     0.5956360804
C     1.7612409032     2.4080375504     0.3874938984
C     0.537806127     2.9606723998     -0.144382385
C     2.939945676     0.3930874946     -0.4686276312
C     2.3965604264     1.6892535279     -0.6917714574
C     2.4180992778     -1.9978658438     -0.9808146586
C     2.6794904964     -0.656457043     -1.4765011722
C     0.567655085     -3.2903448831     -0.4718441634
C     1.4038983564     -2.7820065102     -1.5543606125
C     -1.6038360272     -2.4611045002     0.2702610783
C     -0.7620212547     -2.9757708121     -0.766041685
C     -3.2368516814     -0.6880065721     0.6485598217
C     -2.6905378061     -1.6566388145     -0.1981059682
C     -2.8224824953     1.5867692271     0.5624990597
C     -1.9047539838     2.4792353167     -0.126475996
C     -3.4392353382     0.5307691847     -0.1280891952
C     -1.8674347925     2.3787340601     -1.5368064944
C     0.5551662815     2.8197493058     -1.584002707
C     1.7221574729     2.0215100774     -1.9276722641
C     -0.6472847045     2.6446466131     -2.2751682345
C     2.0460344555     -0.2981363212     -2.6892943882
C     1.6507170904     1.0727787055     -2.951911606
C     0.5784119813     -2.3185711099     -2.5965928378
C     -0.7871188986     -2.4247052811     -2.145089278
C     0.9990957633     -1.1625568733     -3.303484709
C     -2.7208929474     -1.1019765588     -1.5756045967
C     -3.1897847036     0.2589295464     -1.4868827569
C     -2.5608537211     1.2725008766     -2.2551027913
C     -1.7534024728     -1.4612405696     -2.5599779047
C     -0.6448721243     1.7934693332     -3.4433444148
C     0.4584207176     1.0388011709     -3.7682565792
C     0.032077987     -0.3614326326     -3.9124946089
C     -1.8095572768     0.8982723952     -3.3701460247
C     -1.3539993646     -0.4551536047     -3.5405557613


