56

 C     1.4870953085     0.0411081054     3.8620623983
C     0.6968373984     -1.1277187083     3.8001919073
C     1.2249094569     -1.9388928167     2.7369631412
C     2.4315584093     0.0267486226     2.7531944745
C     2.3264775643     -1.2138431563     2.0997480895
C     2.3768713239     1.259472712     2.0119324612
C     0.6882321379     1.1887340836     3.6558493736
C     1.3404840001     2.058068092     2.6852705129
C     -0.6776229514     -0.6595187717     3.6014465997
C     -0.6817628207     0.8047055032     3.4781143452
C     -1.5357063988     -1.3733959686     2.804135967
C     0.3738947274     -2.7576696777     1.9275259237
C     -1.0573936504     -2.5921371299     2.1028119387
C     0.8406760402     -3.0901840937     0.6256373812
C     2.5613287922     -1.2830175101     0.6967520111
C     1.9963184356     -2.401043958     0.0290472041
C     2.4994128048     1.2688985701     0.6035246176
C     2.7702511704     -0.024344098     -0.0514938387
C     1.829904493     2.3580177538     -0.1569252283
C     0.5545082053     2.8673762608     1.9368804831
C     0.9402695872     3.2078808151     0.5696314241
C     -1.4790540842     1.4755964617     2.4981838473
C     -0.9175245712     2.6943249731     1.9617787029
C     -2.4575787024     -0.6943042093     1.9081098
C     -2.380473266     0.7056430242     1.6306967933
C     -1.9039924255     -2.7936018532     1.0149906445
C     -2.7622917273     -1.6048947411     0.8712979417
C     -0.0594906395     -3.3896633486     -0.4579025218
C     -1.4347064764     -3.1455295769     -0.2738501116
C     1.8568497124     -2.4138503231     -1.3896017989
C     0.5715770099     -3.0178293006     -1.71383619
C     2.6750643705     -0.0906419785     -1.4508046477
C     2.3306309987     -1.3130774618     -2.1304445198
C     1.5963324177     2.2058133355     -1.5954300835
C     2.1360359105     1.039779981     -2.2467012517
C     0.4019434929     2.7625087316     -2.1884410885
C     -0.2423241539     3.690701681     -0.0485011256
C     -1.3848451948     3.1958321903     0.764956172
C     -0.5196315707     3.4691791759     -1.3725099806
C     -2.6616314909     1.136244931     0.250330325
C     -2.2585156734     2.4647650037     -0.1119797631
C     -1.8028646184     2.7377874968     -1.4297622752
C     -2.8277239063     -1.2347045604     -0.4717910442
C     -2.1282201142     -2.281035784     -1.2380970867
C     -2.7669250252     0.1530489324     -0.8410467691
C     -0.1988385559     -2.4698890869     -2.746131964
C     -1.5435094043     -1.9790864912     -2.436503493
C     1.633696973     -0.9399657612     -3.3309692869
C     1.5547296325     0.519989716     -3.4128643037
C     0.3894587606     -1.48972668     -3.6107196324
C     -0.3993341334     1.9211332317     -3.0751136201
C     -1.7069831972     1.7561290526     -2.4269179531
C     -2.2443020032     0.450254063     -2.1744249051
C     -1.6787676683     -0.6179163093     -2.9829372981
C     0.1834144515     0.8556204254     -3.723201289
C     -0.5567491521     -0.3778795206     -3.7921614002


