56

 C     1.7365062349     0.     3.7260158267
C     0.8567356373     -1.131135852     3.5999351625
C     1.241439716     -1.9074483762     2.459418894
C     2.6154663096     0.     2.6284623871
C     2.3621892505     -1.2048144829     1.8665624481
C     2.3621892505     1.2048144829     1.8665624481
C     0.8567356373     1.131135852     3.5999351625
C     1.241439716     1.9074483762     2.459418894
C     -0.5194945015     -0.7420120138     3.8023060855
C     -0.5194945015     0.7420120138     3.8023060855
C     -1.4982177505     -1.4190988577     3.1031795726
C     0.2505162224     -2.5199549787     1.6321449492
C     -1.1191493627     -2.4101030854     2.0840250884
C     0.5377697217     -2.6718444487     0.2133240912
C     2.5904639828     -1.241652067     0.4812387392
C     1.8056786989     -2.1719965099     -0.310791637
C     2.5904639828     1.241652067     0.4812387392
C     3.0607721084     0.     -0.1574086375
C     1.8056786989     2.1719965099     -0.310791637
C     0.2505162224     2.5199549787     1.6321449492
C     0.5377697217     2.6718444487     0.2133240912
C     -1.4982177505     1.4190988577     3.1031795726
C     -1.1191493627     2.4101030854     2.0840250884
C     -2.6896793127     -0.7003357648     2.6063302761
C     -2.6896793127     0.7003357648     2.6063302761
C     -2.1532432623     -2.4020633864     1.1307392681
C     -3.1248488725     -1.375595149     1.4192528282
C     -0.5900491881     -2.7107063229     -0.729842703
C     -1.898977324     -2.4501864182     -0.2611517855
C     -0.4004886855     -2.3797508024     -2.1039152979
C     2.0109815949     -2.1314225938     -1.7373989977
C     0.9002621909     -2.302011235     -2.6447063118
C     3.2209857288     0.     -1.5490940732
C     2.8066376496     -1.133328066     -2.3199374269
C     2.0109815949     2.1314225938     -1.7373989977
C     2.8066376496     1.133328066     -2.3199374269
C     0.9002621909     2.302011235     -2.6447063118
C     -0.5900491881     2.7107063229     -0.729842703
C     -0.4004886855     2.3797508024     -2.1039152979
C     -2.1532432623     2.4020633864     1.1307392681
C     -3.1248488725     1.375595149     1.4192528282
C     -1.898977324     2.4501864182     -0.2611517855
C     -3.4035385881     -0.7029544237     0.1982438777
C     -2.6934516773     -1.4022820622     -0.8836220107
C     -3.4035385881     0.7029544237     0.1982438777
C     -2.6934516773     1.4022820622     -0.8836220107
C     -1.1929866116     -1.3849420745     -2.7674305267
C     -1.1929866116     1.3849420745     -2.7674305267
C     -2.2327151099     -0.7392361026     -2.0446764283
C     -2.2327151099     0.7392361026     -2.0446764283
C     0.960338616     -1.4072536573     -3.7627209047
C     2.1823707858     -0.6901827592     -3.6155409342
C     2.1823707858     0.6901827592     -3.6155409342
C     0.960338616     1.4072536573     -3.7627209047
C     -0.3054090112     -0.6994896575     -3.7389540595
C     -0.3054090112     0.6994896575     -3.7389540595


