56

 C     1.0832474748     0.0670873644     4.158430582
C     2.2190988307     -0.1016840859     3.3960099288
C     2.2031176366     -1.4311336047     2.7709224959
C     0.249320572     -1.1422286503     3.9197677238
C     0.9110488472     -2.0007144036     2.9566514436
C     -1.0141818887     -0.697881877     3.6401904492
C     0.2569777587     1.2443585124     3.9787801099
C     -1.0826741976     0.7733008436     3.7876463298
C     0.7281055072     2.2764022417     3.1129057858
C     2.6296199615     0.8435928772     2.3675771958
C     1.916319836     2.0327494243     2.2383815081
C     2.766566664     -1.3244989257     1.4875603229
C     2.9756140532     0.0988631982     1.1744085297
C     2.2742507765     -2.1626506222     0.5025293234
C     0.1968699381     -2.5065168633     1.8092104685
C     0.992704454     -2.7930341459     0.6723808242
C     -1.7252950125     -1.0809503382     2.437994311
C     -1.1727867514     -2.0167874156     1.5230030696
C     -1.909569833     1.2606376582     2.7610687614
C     -2.3745555749     0.1124910538     1.9522444475
C     -0.209043533     2.9426831146     2.3042801115
C     -1.5307554134     2.4439789869     2.0833431774
C     1.6441889221     2.5481652486     0.9125953536
C     0.373749961     3.2384080414     0.9977535085
C     2.6949206009     0.570066592     -0.1324461962
C     1.9821617438     1.8428782036     -0.2723969947
C     2.3915246203     -1.7881624244     -0.8796606174
C     2.5995345088     -0.416611827     -1.219214216
C     0.4329726     -2.9702243679     -0.6463327439
C     1.4356152682     -2.5632068127     -1.6202189564
C     -1.6821520878     -2.002941761     0.151718692
C     -0.9275344752     -2.6875799504     -0.9106428116
C     -2.7054077473     0.2417718394     0.601226898
C     -2.5792311156     -0.9342559998     -0.2481303382
C     -1.7986646193     2.5458994785     0.6775548793
C     -0.5761501348     3.0783764171     0.0130502258
C     -2.5172764223     1.5741868831     -0.0160995564
C     1.1491888393     2.0593666042     -1.4781008906
C     -0.1931664159     2.6435587728     -1.2972886316
C     2.103673159     0.002611295     -2.4978115289
C     1.3372974362     1.2498095757     -2.6103175766
C     1.0882491958     -2.1900835099     -2.9159873842
C     1.5731895639     -0.9264806652     -3.4168032289
C     -1.2770372908     -2.4829071214     -2.310146478
C     -0.2654895966     -2.3522374955     -3.3236147228
C     -2.8806217608     -0.7571422633     -1.647029901
C     -2.344641074     -1.5993272979     -2.6303933162
C     -2.4334661357     1.6477310295     -1.443019671
C     -1.2428601675     2.216225601     -2.1206083717
C     -2.8684174409     0.5883505235     -2.2056369395
C     0.2933322347     1.0309206111     -3.616525624
C     0.4705323923     -0.2991078115     -4.1368689728
C     -0.6098658977     -1.2105683074     -4.1744145815
C     -1.9017323487     -0.7700974841     -3.7982629836
C     -1.0230731908     1.4775088825     -3.337505987
C     -2.1273432504     0.5570351773     -3.4837072362


