56

 C     1.4928773322     -0.2495976305     4.1870620878
C     0.632766265     -1.3755251153     4.2252127303
C     1.1591645766     -2.3793832803     3.2682167834
C     2.53883306     -0.4832826953     3.2663838891
C     2.4236632692     -1.8561508457     2.764656889
C     2.5723069456     0.6089491206     2.3175573322
C     0.7359184153     0.917962211     3.7497110616
C     1.4130513761     1.4717415794     2.6289232225
C     -0.647866366     -0.9723126946     3.8303246313
C     -0.6059980164     0.4922602362     3.5456483467
C     0.1479110616     -2.6553088552     2.3394232595
C     -1.0179837556     -1.8057088043     2.7127958645
C     0.439547143     -2.8766404104     0.934301322
C     2.7422753963     -2.0737797523     1.4523769032
C     1.820369434     -2.8190442323     0.5841451439
C     2.9538733384     0.3977147538     0.9753964267
C     3.2659999008     -0.9756816141     0.6124260393
C     2.4550186673     1.3096487854     -0.0705161024
C     0.6968897644     2.0661032732     1.5735858041
C     1.3716633529     2.1959972719     0.2805284007
C     -1.3378814502     0.9927862506     2.4650905938
C     -0.7565433985     1.978412643     1.5831651032
C     -1.8596453954     -1.334890726     1.7277689675
C     -2.2913398704     0.0719174477     1.8136088556
C     -0.5542038319     -2.5320836542     -0.0830969135
C     -1.8211154099     -1.9442744518     0.3671430223
C     -0.169133629     -2.2970439285     -1.4720637801
C     2.1672498631     -2.5064167805     -0.7432555094
C     3.0736315616     -1.3597290099     -0.7073412056
C     1.2348098075     -2.2574432408     -1.7498824764
C     2.5866579563     0.9337522034     -1.4940206347
C     2.7441495052     -0.4706311504     -1.7635517723
C     1.7659690884     -1.1494864892     -2.5720902769
C     1.8672312885     1.6609699448     -2.4776452213
C     0.6199327901     2.8483338599     -0.7510854339
C     0.988078215     2.7249876342     -2.0849856966
C     -1.5427351236     2.4334659649     0.4295366524
C     -0.8527997419     2.9846299338     -0.6704380012
C     -3.108358906     0.557263807     0.8271672189
C     -2.8389817162     1.8583631631     0.1922265078
C     -2.7429189623     -1.4732195623     -0.5552449933
C     -3.6076474877     -0.344403517     -0.1938299554
C     -1.0721182972     -1.5745126948     -2.3983166913
C     -2.4062302549     -1.3131925581     -1.9725256617
C     0.9166314959     -0.423508543     -3.3851581084
C     1.1412833335     0.9652187096     -3.5098149259
C     -0.5277986445     -0.6821681755     -3.3840818341
C     -0.2428562552     2.6932451194     -2.8914462903
C     -1.3710971233     2.8666836342     -2.0178079384
C     -0.1551444927     1.595617618     -3.730910999
C     -1.1837132512     0.5722122688     -3.7021311576
C     -3.3436835934     1.7598806318     -1.1321725558
C     -3.8446992103     0.4018680819     -1.330699475
C     -3.1121792213     -0.1606062325     -2.4423340765
C     -2.5336930745     2.1019650961     -2.2510223943
C     -2.419387744     0.884075391     -3.1169129883


