56

 C     1.5445552745     -0.0439009617     3.9219697791
C     0.6987087629     -1.1779981387     3.7716084371
C     1.1871349511     -2.0026029729     2.7102141181
C     2.493745846     -0.0611269882     2.8700204067
C     2.2757558064     -1.2481489791     2.0837003708
C     2.3889833458     1.1664774153     2.1429272473
C     0.7140105446     1.1168889288     3.7153289784
C     1.2701731155     1.9395941072     2.7021362774
C     -0.6905409334     -0.7594002818     3.75130949
C     -0.6724178766     0.7277480014     3.6435131686
C     -1.5944090346     -1.4861741492     3.0118730099
C     0.2735843474     -2.7583625694     1.9206386268
C     -1.1429751152     -2.6259011998     2.2044795926
C     0.6571880748     -3.0052868124     0.5676454464
C     2.4425625579     -1.2418714668     0.6630438663
C     1.7347838734     -2.2434144291     -0.0464044477
C     2.681791352     1.2365597879     0.7597625928
C     2.7646664596     0.0158898504     -0.0493386322
C     2.2098073973     2.425403451     0.1234158423
C     0.3995200878     2.6434251962     1.8075963221
C     0.9463164736     3.0283022164     0.5713494403
C     -1.5080567903     1.3523668837     2.7127866835
C     -0.9992207166     2.3480044444     1.8100147222
C     -2.6298445715     -0.7889559545     2.2151269071
C     -2.5144289915     0.5787891751     1.9828423374
C     -2.0567582282     -2.756196063     1.1353860706
C     -2.9565866572     -1.6097743025     1.1131835904
C     -0.3134167207     -3.2392068456     -0.4652041627
C     -1.6832845207     -3.056864994     -0.1954717401
C     1.494405826     -2.1334788752     -1.4686467437
C     0.2296135862     -2.7840980925     -1.7269104182
C     2.5999629845     0.1008794494     -1.4926351182
C     1.9376692354     -1.0125525181     -2.2202426988
C     2.2788068228     2.5395657491     -1.2546814735
C     2.5056809305     1.4218331736     -2.0843136656
C     0.1420570529     3.2632845983     -0.5952117546
C     1.0262748337     3.2041620119     -1.7122045097
C     -1.7079918743     2.2196950749     0.5444653862
C     -2.6157714705     1.1029656134     0.6405118547
C     -1.1591838957     2.6435120107     -0.6939155248
C     -3.0721460126     -1.128432658     -0.2102672478
C     -2.4417287861     -2.1378711171     -1.0588460713
C     -2.8599915524     0.2692743745     -0.4962256323
C     -0.6262437046     -2.2535958042     -2.6960574626
C     -1.9491613661     -1.76660474     -2.2732565639
C     1.1787187533     -0.7324851937     -3.4341386084
C     -0.0958766802     -1.3129452022     -3.592484852
C     1.6737538495     1.6584859077     -3.2703174345
C     0.6456236565     2.6759107138     -2.9016386028
C     1.028104173     0.6433744563     -3.8864873888
C     -1.5397701939     1.9303978422     -1.9382092101
C     -2.3178367867     0.674769837     -1.8020299179
C     -2.0759886584     -0.3815658904     -2.7465044083
C     -1.0949396064     -0.220091583     -3.7590166442
C     -0.6703787102     2.0765659234     -3.0794254088
C     -0.4350105301     0.964782609     -3.9467642118


