56

 C     1.458352677     -0.0225566071     3.9992431552
C     0.6466106099     -1.2330082555     3.7361786691
C     1.4478974857     -2.1517809844     3.0563370657
C     2.6541281505     -0.1261705929     3.1949983688
C     2.6976262343     -1.4230556927     2.6814407116
C     2.672480134     0.978654523     2.2440607076
C     0.7336988821     1.0647827472     3.5445602137
C     1.5113899416     1.7917185373     2.5469461468
C     -0.6047842861     -0.8526101758     3.1797796159
C     -0.5971487084     0.6338426181     3.1390403096
C     -1.1497561149     -1.5480091283     2.0676517823
C     0.9783571496     -2.7993624867     1.8975183883
C     -0.3616066503     -2.6052714693     1.4278243382
C     2.980854089     -1.7011709838     1.3175690825
C     2.0651716804     -2.7605610975     0.9106779148
C     3.0255839537     0.7595916192     0.8765603222
C     3.2582028215     -0.625112714     0.3957873785
C     2.4797298634     1.6878136938     -0.0643157759
C     0.8315293095     2.5180250971     1.5650791736
C     1.4687893063     2.6237417889     0.2971594471
C     -1.3073783021     1.3490934538     2.1984977861
C     -0.6512009536     2.5174243751     1.5656401609
C     -2.1937702138     -0.8451171277     1.3022778191
C     -2.3598168286     0.6277239551     1.4522708618
C     -2.6809183821     -1.4409456536     0.1369884193
C     -0.642919502     -2.9348625663     0.0260608474
C     -1.8776878316     -2.4726497871     -0.5376520405
C     1.7988852964     -2.9713651437     -0.4214672421
C     0.4298191738     -3.1687633226     -0.8819402058
C     3.0363864006     -0.9088838785     -0.9883069765
C     2.4553116188     -2.1358678087     -1.37269607
C     2.2303245318     1.3512341471     -1.4703086798
C     2.4931970861     0.0857572148     -1.9284066239
C     0.7040646952     2.9808130124     -0.8840125365
C     1.0925699481     2.1046506379     -1.9593357993
C     -1.3112653921     3.127523459     0.5130018402
C     -0.6024049191     3.4167841384     -0.7603517203
C     -3.1017664975     1.35684742     0.5223428179
C     -2.6416762045     2.6917493922     0.1509015917
C     -3.3670329144     -0.6507709307     -0.8860579476
C     -3.5926466702     0.7150208613     -0.7078769239
C     -1.9921006296     -2.2330951852     -1.9208757466
C     -2.8525507214     -1.0844974669     -2.1361001978
C     0.3573388918     -2.6370834062     -2.2404934562
C     1.5593785182     -1.9299800244     -2.4911050168
C     1.5313791631     -0.5552803307     -2.8207028303
C     -0.8329710067     -2.0873649455     -2.7240377207
C     0.1094479725     1.5227765658     -2.8219798855
C     -2.1987192468     -0.1807265862     -3.0201094148
C     0.2889802303     0.0938614488     -3.1869174356
C     -0.8638188776     -0.7359745018     -3.2821909172
C     -1.5087617551     3.1175394775     -1.822285709
C     -2.7921909247     2.8241545813     -1.2334681506
C     -3.3046888012     1.6032144725     -1.7979658272
C     -1.2125180968     2.0866149675     -2.7626220216
C     -2.3953853638     1.1909446485     -2.8228120439


