56

 C     1.5438530838     0.0266621996     3.8812611842
C     0.7283595914     -1.1520508245     3.7132575548
C     1.2421159971     -1.9263078876     2.6539404335
C     2.5396144765     0.0165122213     2.8494266076
C     2.3972369192     -1.1688745384     2.0970062572
C     2.4709051102     1.2524347162     2.0919457937
C     0.6838965951     1.0893103773     3.5381342807
C     1.2609601254     1.9248231943     2.5196892741
C     -0.6711646971     -0.7796236062     3.6543611637
C     -0.7041483424     0.6598011119     3.4442968167
C     -1.5532745923     -1.5946386293     2.9462612987
C     0.3506877437     -2.6422470414     1.7741852002
C     -1.0519105158     -2.5799196531     2.0026627858
C     0.7851833227     -2.8136060435     0.4210260296
C     2.6756238976     -1.1766633585     0.6931057755
C     1.9772202078     -2.1526324834     -0.0772572113
C     2.8995573847     1.3157879361     0.7508123407
C     3.130557222     0.0516028101     0.0301115278
C     2.3832731268     2.4384763141     0.0229961537
C     0.4334555952     2.5765053481     1.5693615449
C     1.0979658857     2.9999109609     0.3903677367
C     -1.5521134603     1.2382376601     2.4582721657
C     -1.0101445667     2.2474450704     1.524440416
C     -2.6627873205     -0.9652017183     2.3196800413
C     -2.650636482     0.406425109     2.0068841928
C     -1.9867271049     -2.6338816881     0.8691689062
C     -3.0166659848     -1.7035422714     1.1176596498
C     -0.1304465559     -3.0086660438     -0.6759106224
C     -1.5450597503     -2.8374771769     -0.4859538743
C     1.8359898439     -2.0284057587     -1.500142534
C     0.5279730444     -2.5584279697     -1.8796251265
C     3.0719953426     0.0931340264     -1.3958117227
C     2.3751412681     -0.9404683696     -2.1557770125
C     2.48631483     2.4831921025     -1.3979163192
C     2.8432108986     1.3181506347     -2.0862680051
C     0.3829326658     3.2156898294     -0.8572873156
C     1.2357709527     2.9431652896     -1.9537874126
C     -1.6568834185     2.4025814676     0.2732678127
C     -0.959774691     2.8225930526     -0.9218573116
C     -3.223195035     0.5443277043     0.6627280386
C     -3.4589802758     -0.794170376     0.1158472809
C     -2.7373238507     1.5288065734     -0.1642154891
C     -2.2769118536     -2.1752315234     -1.5363360996
C     -3.1697994608     -1.0665548309     -1.2155755316
C     -0.1917903725     -1.9549262564     -2.9086392952
C     -1.6010303652     -1.8081807359     -2.7367018527
C     1.6078872152     -0.2899180661     -3.2412397682
C     1.8799238113     1.0967453501     -3.1669167839
C     0.8198996351     2.0367680199     -2.9972108639
C     0.3200014497     -0.7310365383     -3.5345307644
C     -1.4598516847     2.0784687692     -2.0639584041
C     -2.5849541539     1.2986006728     -1.5983757977
C     -2.8487187593     0.0319681473     -2.1296588829
C     -1.9505670999     -0.47045459     -3.1198799392
C     -0.5528300489     1.583975256     -3.0675034685
C     -0.7798168194     0.2310060342     -3.5238208352


