56

 C     1.6128135405     0.1356285213     3.8368075276
C     0.8358263479     -1.0204669031     3.7424000498
C     1.3792098789     -1.8995161293     2.7212938699
C     2.5590031288     0.1111968748     2.7623108097
C     2.4480296604     -1.156224577     2.0818797286
C     2.4359303664     1.2990814219     1.9863933763
C     0.7293522903     1.2676178405     3.5714212516
C     1.3235684324     2.0778859032     2.5554303998
C     -0.5692160174     -0.6251991505     3.635116816
C     -0.6166418637     0.8437185889     3.4497069676
C     -1.4206580886     -1.4265675983     2.9317041259
C     0.5010850865     -2.7078616592     1.9535330086
C     -0.9212105526     -2.6100480219     2.2213169331
C     0.8893440905     -2.986462056     0.5986205396
C     2.6577528563     -1.2201838078     0.680989208
C     1.9778772799     -2.2756465645     -0.0085314965
C     2.670716687     1.3017544149     0.5785592309
C     2.9384317805     0.019737206     -0.0613719497
C     2.0544022936     2.3859608351     -0.2094052112
C     0.4837535808     2.7660058852     1.698730715
C     0.9150716927     3.0533660875     0.3463939307
C     -1.468322144     1.419866966     2.4387442677
C     -0.9349162513     2.5101764526     1.6930473576
C     -2.5009292454     -0.8308941947     2.1099628062
C     -2.4765260799     0.5634152132     1.7760949333
C     -1.8266713933     -2.8336381692     1.1743323282
C     -2.8477312419     -1.7898389617     1.1444723433
C     -0.0895502668     -3.2578211419     -0.4488970819
C     -1.4582810524     -3.1429275424     -0.166365031
C     1.7367511812     -2.2190366144     -1.4419300556
C     0.4243411659     -2.7807781593     -1.7089229755
C     2.8594034481     -0.0352834096     -1.4881058689
C     2.2097498631     -1.1633372522     -2.1805515255
C     2.1037598346     2.3096175647     -1.6389371487
C     2.5953208292     1.1148253259     -2.2394773117
C     0.9893062148     2.731553177     -2.4430800342
C     -0.2639784825     3.2545857429     -0.4473118168
C     -1.3897432822     2.8108669033     0.3474964808
C     -0.2374313388     3.0354969048     -1.8419229369
C     -2.9238036221     0.9019015287     0.4540143338
C     -2.3826101033     2.041548313     -0.2511675164
C     -3.116706933     -1.4637908964     -0.2080992967
C     -2.306993576     -2.3450163749     -1.0556428291
C     -3.2304503392     -0.1110811925     -0.5400710005
C     -0.4173087315     -2.1398795976     -2.6268563112
C     -1.7948442312     -1.8617754303     -2.2511658638
C     1.4163992951     -0.6271479053     -3.2917571396
C     1.7346533022     0.7578211378     -3.3910327473
C     0.7435542719     1.719029786     -3.4845358141
C     0.0742423065     -1.0304260796     -3.424077658
C     -1.2898118431     2.2178505913     -2.4752197262
C     -2.3116428661     1.7241422707     -1.6772469959
C     -2.7757809033     0.3592804553     -1.835594943
C     -2.100335238     -0.5062199243     -2.7062666754
C     -0.6465733109     1.3511313913     -3.4579097448
C     -0.9809817576     -0.0179939703     -3.4893186034


