56

 C     1.6601945516     -0.097575848     4.3801705908
C     0.8916902643     -1.2426042719     4.3756333557
C     1.3440006309     -2.1787880033     3.3758917556
C     2.5745214579     -0.2113830813     3.2587351642
C     2.3645452381     -1.5132235912     2.6067014549
C     2.3537981042     0.9004908282     2.434086203
C     0.7365566241     1.0155108677     4.091354218
C     1.2448654939     1.7340624363     3.0082708655
C     -0.5278559358     -0.9157365348     4.1171978729
C     -0.6359002556     0.517758521     4.0113001972
C     0.1685042404     -2.6155080567     2.6976448436
C     -0.9869904695     -1.7527592465     3.0812282628
C     0.2822978716     -2.9565514538     1.3821051206
C     2.3613947086     -1.6209644057     1.1726462312
C     1.4718426256     -2.5919337538     0.6304325878
C     2.495710078     0.8337166774     1.0034274921
C     2.5841612088     -0.4426513085     0.3163141831
C     1.9715778472     1.9427576218     0.2946236898
C     0.3603332269     2.4136985609     2.1112721807
C     0.8882559359     2.7173417077     0.8208534111
C     -1.4579722055     1.0187750655     2.9946686691
C     -1.0286417291     2.1345776041     2.1821716008
C     -1.8498083956     -1.2385833082     2.0264579925
C     -2.1721407585     0.1329453953     2.0935522285
C     -0.8268888748     -2.8157574942     0.4567587491
C     -1.8545446422     -1.8825498898     0.6859123137
C     1.1313498388     -2.6102375414     -0.7503482881
C     -0.2761832447     -2.9494563912     -0.8583597014
C     2.2933680478     -0.4881557861     -1.113029209
C     1.6787009008     -1.6861702495     -1.6803209647
C     1.8693849732     1.9502041533     -1.1438594875
C     2.101034478     0.7632175591     -1.8761480178
C     0.0678111635     3.0997208154     -0.2976674045
C     0.8042622123     2.8687152318     -1.5088068563
C     -1.7836078279     2.1212694332     0.9437033205
C     -2.4469396135     0.8666307447     0.861684059
C     -1.3244874379     2.7426547252     -0.2491085913
C     -2.4404653382     -1.2067626741     -0.5021291878
C     -2.7342097034     0.233621321     -0.3930866793
C     -1.0191519488     -2.5919224735     -1.96181229
C     -2.1612014953     -1.7008032789     -1.7930310014
C     1.0300981441     -1.6545522604     -2.9746560346
C     -0.3154595424     -2.1877741343     -3.1133320695
C     1.5288912465     0.7277638991     -3.2255971099
C     1.0836412416     -0.5111889227     -3.7938450277
C     0.1290178701     2.6862509797     -2.7206463564
C     0.6221632126     1.7445909685     -3.650902492
C     -1.9673417114     2.3404856122     -1.4641249828
C     -2.6780396414     1.0508390673     -1.5414915157
C     -1.3139080269     2.5131769331     -2.6887599578
C     -2.2077837441     -0.8659199454     -3.0117920176
C     -1.1186188651     -1.2645688351     -3.8730987269
C     -0.2336689173     -0.3034967794     -4.4251188931
C     -0.5380093478     1.0543729925     -4.297321609
C     -2.4936856126     0.5104677297     -2.8832866528
C     -1.7004681122     1.4619620779     -3.6231174984


