56

 C     1.3980852222     -0.0226723217     3.6132442416
C     2.5858923967     -0.221332758     2.9317499715
C     2.5644022914     -1.5659416332     2.3519449527
C     0.548015041     -1.212994146     3.3763875155
C     1.2596778558     -2.1316654628     2.54577883
C     -0.739347421     -0.7809072323     3.0557138845
C     0.6108640364     1.1427390411     3.3971307078
C     -0.7640390858     0.6883939518     3.1937537965
C     1.1144451473     2.15314749     2.5560660586
C     3.0106071326     0.6997549234     1.9058689242
C     2.3068477114     1.8964440268     1.7594684026
C     3.1038689252     -1.4864902648     1.0618652132
C     3.3576631119     -0.0832054307     0.7200602478
C     2.5930022317     -2.3695614084     0.0842763127
C     0.5596596418     -2.7707464126     1.4598726968
C     1.3368957918     -3.0584340139     0.2940831342
C     -1.525663676     -1.4455403422     2.0446525145
C     -0.8852038419     -2.5214236854     1.3027431708
C     -2.6297594     -0.6808555358     1.444243177
C     -1.6256423804     1.4198597674     2.4134294625
C     -2.6246996492     0.7522303921     1.5918913618
C     0.1992289904     2.915304827     1.7262319829
C     -1.1644231168     2.6103120399     1.7181878133
C     2.0820072346     2.4492864575     0.4260924772
C     0.8511399813     3.2061097654     0.4654646704
C     3.0765683248     0.394056875     -0.5871236759
C     2.4629295399     1.7242539086     -0.7457245006
C     2.6496242208     -1.9507559254     -1.2657969332
C     2.8061630633     -0.6019348008     -1.6100216467
C     0.7074687214     -3.1979389641     -1.0205412189
C     1.5003210735     -2.506579402     -1.9827428311
C     -1.4887766385     -2.8994967753     0.0472196631
C     -0.6587125736     -3.1260784998     -1.1514871785
C     -3.2524127995     -1.1845334011     0.2586025453
C     -2.6846426657     -2.3333022948     -0.3789480714
C     -3.653490101     -0.2962069749     -0.7913961968
C     -2.9118103225     1.6138154904     0.4859810151
C     -1.9522096949     2.7135632279     0.5007386592
C     -3.3478943507     1.0649109191     -0.7436397081
C     0.0818136847     3.3758056665     -0.6954911894
C     -1.3619488006     3.1368261877     -0.6850948559
C     1.6904408633     1.9787153083     -1.9372713326
C     0.5968542919     2.8503226863     -1.9041497558
C     1.8199807649     -0.3570716548     -2.6743099592
C     0.9546421502     -1.5418502271     -2.8326486545
C     1.2917090969     0.8844935949     -2.8374302253
C     -1.252778319     -2.3864039441     -2.2549770186
C     -2.5780364684     -2.0597065736     -1.8290977771
C     -3.119974061     -0.8224117459     -2.0647629741
C     -0.4792388697     -1.4228265223     -2.9843191455
C     -2.6515949814     1.4391967039     -1.9880485391
C     -1.7141537162     2.4646399913     -1.9495129928
C     -0.5114162957     2.2819723069     -2.6840598239
C     -0.1272988764     1.0437648106     -3.2102743365
C     -2.3702306084     0.2139526495     -2.7231327358
C     -1.0454197847     -0.0750046755     -3.2007401658


