56

 C     1.4521854663     0.0182373437     4.2200917839
C     0.5918955758     -1.1587615572     4.1454419257
C     1.2851457272     -2.1379789669     3.4218760721
C     2.6443767413     -0.2322563057     3.4143062013
C     2.5639752525     -1.5523417349     2.9563096247
C     2.7730357635     0.8322511531     2.442268609
C     0.7670635115     1.0596907718     3.6046611717
C     1.5843195321     1.6749536057     2.5607105132
C     -0.7104944676     -0.7439523275     3.6689254298
C     -0.6147572812     0.6720052295     3.3089810487
C     -1.3932990874     -1.5685972298     2.7846852617
C     0.6808933331     -2.8019026972     2.3040759693
C     -0.6943384727     -2.6582096071     2.106693517
C     2.6888368156     -1.8649489829     1.5598734256
C     1.5576367896     -2.670159315     1.1320350699
C     3.1784560642     0.5209159611     1.1466089364
C     3.1464187828     -0.8739874575     0.6823960505
C     2.7479276582     1.338824134     0.0560287522
C     0.9677569038     2.2474318165     1.4480813169
C     1.6955398772     2.2790583033     0.1735506973
C     -1.255670031     1.1950619035     2.1850860294
C     -0.5171420839     2.2017570018     1.3695310168
C     -2.2925131333     -0.9943372826     1.8149995376
C     -2.2820618234     0.3858809565     1.5072737145
C     -1.2402339027     -2.7731622126     0.7833099782
C     -2.4244412947     -1.9398807582     0.7230025803
C     1.0340542519     -2.588947234     -0.1872699938
C     -0.3982552883     -2.8442469729     -0.3722245109
C     2.7291164902     -0.8803190156     -0.6838490919
C     2.7663568334     0.5092045871     -1.1408643728
C     1.7085988349     -1.7329796667     -1.1748398498
C     2.1539383143     0.9116671594     -2.2739793953
C     1.0418142714     2.7473696217     -1.0446183841
C     1.4573800766     2.1956831702     -2.3137996647
C     -1.1035639508     2.6599543065     0.216544553
C     -0.326415508     3.1533233863     -0.9402701727
C     -2.8162812115     0.8142573639     0.2089998085
C     -2.3613402381     2.0867670997     -0.3101335712
C     -2.9403124293     -1.5497397459     -0.4872473304
C     -3.260555667     -0.1451789932     -0.7366183503
C     -1.0066213839     -2.5100885682     -1.6218976634
C     -2.3397908356     -2.0662099739     -1.6688846357
C     1.0220625157     -1.3238896874     -2.4270778372
C     1.395746389     -0.0613218345     -3.0668153565
C     -0.2804188798     -1.7892760338     -2.6857961807
C     0.5552991926     2.0986702702     -3.3959511292
C     0.4974483741     0.6768539413     -3.8377464926
C     -1.1851208706     3.0953211758     -2.0582636249
C     -2.4195084214     2.3829613406     -1.6653615097
C     -0.7608550595     2.5557538964     -3.2851008374
C     -3.0943782071     0.0890364485     -2.1716908015
C     -2.4697082417     -1.0695578098     -2.7137747892
C     -1.2458732735     -0.9719924751     -3.4273310699
C     -0.8787813968     0.2935255915     -3.9559849261
C     -2.6958248806     1.3653120137     -2.6539960618
C     -1.6787220171     1.442494913     -3.6449609815


