56

 C     1.4937069761     0.080047067     4.0668227601
C     0.7077384618     -1.1234966958     3.8329951504
C     1.4854338723     -2.0184357411     3.0976916725
C     2.671019225     -0.0104457373     3.1901795544
C     2.6956348727     -1.2854261371     2.6364140217
C     2.6885621604     1.1079577435     2.2723118824
C     0.7409608279     1.1144227337     3.5262563962
C     1.5099001526     1.8866597086     2.5709596132
C     -0.5941705891     -0.7696684021     3.2822767738
C     -0.5856790008     0.6590431028     3.0950360968
C     -1.2322494426     -1.5829796064     2.3166575123
C     0.9417032447     -2.7122356006     1.9988544395
C     -0.4591062138     -2.6932901188     1.7520127497
C     2.8158498666     -1.5138996855     1.2296312429
C     1.8293012068     -2.4998581864     0.8575685008
C     3.0514786146     0.938810553     0.8917275501
C     3.0864010067     -0.42569708     0.3266838683
C     2.6451139713     1.9926628086     0.0371605053
C     0.8486672714     2.6492264872     1.6029976124
C     1.6543085224     2.9609400407     0.458315106
C     -1.247885315     1.2871736583     2.0209183027
C     -0.6129679488     2.4720606538     1.4121462445
C     -2.2520871658     -0.9444868386     1.4793603948
C     -2.2254776622     0.4935610296     1.2730908407
C     -2.8524871849     -1.7692491554     0.45994325
C     -0.8537951441     -3.1820245942     0.4764979607
C     -2.1374192045     -2.9262055396     0.0052372572
C     1.3479362066     -2.6136749811     -0.4825703638
C     0.0427789724     -3.1331377891     -0.6723159625
C     2.6922327797     -0.5992648751     -1.0339163195
C     1.8413654253     -1.6870813031     -1.4435037183
C     2.4636528382     1.8142586375     -1.4085848095
C     2.399218035     0.5072807544     -1.902908207
C     1.0485887092     3.4943955906     -0.7008393504
C     1.5462002414     2.784655538     -1.8922686793
C     -1.1615023447     2.9620642517     0.2166509887
C     -0.3268657888     3.5844700967     -0.7849048047
C     -2.7691513934     1.0475912867     0.0232909636
C     -2.1986551452     2.2278456571     -0.4862197988
C     -3.499394827     -1.2042765906     -0.6755178164
C     -3.3932755113     0.157682447     -0.9547174416
C     -2.1091431368     -2.8998250152     -1.4640711649
C     -0.7364129429     -2.8390878085     -1.8616270523
C     -3.0094597908     -1.9371663418     -1.8869888184
C     1.0123219033     -1.2526305816     -2.5463440506
C     1.3348951074     0.1239617272     -2.8156321088
C     -0.2960989651     -1.7954702453     -2.7687067956
C     0.4416333833     2.4252940276     -2.6926408524
C     -0.7230627002     3.0595693317     -2.0840568762
C     -1.897663937     2.3418339033     -1.9346503058
C     0.3122068527     1.0569988514     -3.1941109972
C     -3.0797324733     0.2999750516     -2.3827385584
C     -2.6591720138     -1.0003840559     -2.8635975362
C     -1.2947921267     -0.8832259403     -3.3025818347
C     -2.1430959747     1.2371603878     -2.7875326413
C     -0.9980067743     0.5350215195     -3.3861423469


