56

 C     1.3741840322     -0.0787179166     3.6140274309
C     2.5247477266     -0.3161952075     2.9122912601
C     2.4617976124     -1.7005765495     2.3655307235
C     0.5247712139     -1.3007727983     3.5469341609
C     1.213991038     -2.2845703073     2.7635854738
C     -0.7642973574     -0.8888713358     3.2050995671
C     0.572858547     1.0795592515     3.3414076121
C     -0.7766701804     0.5798952978     3.2549003262
C     1.0328788625     2.0888430384     2.4170933367
C     2.9592919903     0.5869981352     1.8859073419
C     2.2663977215     1.8342440392     1.6647625163
C     2.8206990587     -1.628817289     1.0185884855
C     3.2973751368     -0.2609901798     0.770115169
C     2.073204608     -2.3388587348     -0.0099254973
C     0.4907204291     -3.0030401121     1.8208538834
C     1.0176058322     -3.1628336146     0.4676855163
C     -1.5490542103     -1.5912213753     2.199312634
C     -0.9408066511     -2.7586152193     1.6621335313
C     -2.496048257     -0.8275555215     1.3501699602
C     -1.7327777882     1.2650369135     2.5306209051
C     -2.6161219129     0.5667108854     1.5990184788
C     -0.0024480468     2.858707085     1.7733768741
C     -1.3488663562     2.5079699154     1.9547206464
C     0.0942825726     3.3005912415     0.36824126
C     2.3644346163     2.3701814933     0.3298004266
C     1.2416901127     3.0637658011     -0.3315699023
C     3.2684345421     0.2327837992     -0.5196495385
C     2.9756609299     1.6153856125     -0.6828355539
C     1.9557356608     -1.7464071847     -1.3650013058
C     2.6268838732     -0.5154491128     -1.5987239661
C     0.7835722459     -2.0554096476     -2.2203248737
C     -0.0990720084     -3.4270792003     -0.3816668994
C     -1.2881967706     -3.1816418271     0.3435879729
C     -0.2439870994     -2.8855473083     -1.6946548069
C     -2.8386862886     -1.3077722621     -0.0110858302
C     -2.2023993926     -2.4813289039     -0.5002065109
C     -1.6525995855     -2.5319582843     -1.8527455634
C     -3.2351980456     -0.3457904257     -1.0299653224
C     -2.9001587195     1.52161639     0.529757996
C     -2.0765339774     2.6679044543     0.7075153753
C     -1.2110517425     3.1243470064     -0.2981409744
C     -3.1222144091     1.0954240541     -0.7653067525
C     -1.333696503     2.6089941074     -1.6391604876
C     -2.4691086466     1.7481552907     -1.8724518545
C     1.1558308221     2.6358212864     -1.741717726
C     2.2479930465     1.7753203151     -1.9300411903
C     2.1010532562     0.489363342     -2.5205132562
C     -0.1001776914     2.3543952405     -2.3914915084
C     0.3497975616     -1.0857362207     -3.2164780159
C     0.9518301728     0.2545387519     -3.250093267
C     -0.0826756806     1.2555941942     -3.3279528742
C     -2.0237419367     -1.5729468983     -2.7858118639
C     -2.9323237832     -0.5409354441     -2.3784448932
C     -2.4320374457     0.757854033     -2.9097459147
C     -0.9952987471     -0.9407389689     -3.5598502682
C     -1.2814739479     0.5203768853     -3.6114824464


