56

 C     1.547617411     -0.0114147754     3.7668747302
C     0.7390766335     -1.1851676434     3.6301701693
C     1.2891856286     -1.988485423     2.5784833091
C     2.6210027124     -0.0575156938     2.8983555661
C     2.4494785534     -1.2724485849     2.0690808302
C     2.6745793461     1.2225412402     2.2187516203
C     0.7107192233     1.1400356604     3.4037340623
C     1.3894982095     1.9203075239     2.4354366539
C     -0.6156001175     -0.7646561982     3.5014871147
C     -0.6106007135     0.6958541655     3.1891751876
C     -1.4682963421     -1.602983929     2.8427605437
C     0.4300842928     -2.7069265691     1.7025794447
C     -0.9533678719     -2.7393661658     2.1119250539
C     0.7079508163     -2.6965854645     0.2536632891
C     2.696676921     -1.2093944155     0.6881267404
C     1.7898451103     -1.8700249511     -0.2753616286
C     3.2280784127     1.2566651136     0.9846291746
C     3.419746841     -0.0188402375     0.2439678845
C     2.8320219845     2.2691642355     0.031214623
C     0.690849052     2.4755884383     1.3274955922
C     1.5089826539     2.8555530093     0.1463254545
C     -1.3624263077     1.1837004451     2.0831596106
C     -0.7336441672     2.1566698132     1.1824924788
C     -2.5875619718     -1.0559646726     2.0672539971
C     -2.4932479319     0.337656717     1.6149314589
C     -1.9749808092     -3.0916928293     1.1943284659
C     -3.0489153899     -2.0703142396     1.2250615995
C     -0.3620158767     -3.0273607     -0.6346009157
C     -1.6748233577     -3.3228132033     -0.1288804843
C     -0.5506910617     -2.3204535313     -1.8829577808
C     1.6802669304     -1.3405624375     -1.6300101892
C     0.4125821386     -1.4258308078     -2.3680025043
C     3.4552621553     0.3188238152     -1.0812705768
C     3.2972717197     1.8000669593     -1.2262333693
C     2.5916485122     -0.302933827     -2.050032826
C     2.5976742397     2.0444821326     -2.3824280636
C     2.1767643794     0.7182612827     -2.9442763775
C     0.845518479     3.170265525     -1.0732059479
C     1.4499938077     2.8491961322     -2.3399261316
C     -1.3667335344     2.4100367272     -0.1114099858
C     -0.5907567418     2.9143145108     -1.1922752528
C     -3.108796205     0.6267150175     0.3901566551
C     -2.5696508409     1.6842601528     -0.4588572016
C     -3.4650337522     -1.8007021192     -0.1172108737
C     -2.6682783633     -2.6287797467     -0.9743697044
C     -1.9966504034     -2.0909041699     -2.0837763842
C     -3.6411623899     -0.4448771864     -0.4789631351
C     -2.8227179495     1.3038702118     -1.8021675374
C     -2.4175363226     -0.8427165324     -2.590769777
C     -3.3120544295     -0.0703658051     -1.7929048545
C     -0.0615892916     -0.2726530621     -3.1847740979
C     0.8493341693     0.8283550212     -3.4001963138
C     0.4327994952     2.1827079817     -3.1279305723
C     -0.8182590226     2.3915742509     -2.5322021488
C     -1.4370054355     0.0556965636     -3.1644928562
C     -1.8021132377     1.420372285     -2.7521338091


