56

 C     1.3403282953     -0.0883483583     3.3295908094
C     2.4583122614     -0.2997809623     2.4900412265
C     2.3041418177     -1.6551424684     1.9575524016
C     0.4862564588     -1.2426417244     3.3012654751
C     1.003517531     -2.1726760203     2.3733594318
C     -0.8726614051     -0.8156747144     3.2590947665
C     0.5033616054     1.0812636797     3.225040557
C     -0.8905853296     0.642700646     3.1370727457
C     0.9635962706     2.1645302375     2.5033296118
C     2.9188617084     0.7874574553     1.6577259807
C     2.2294464452     2.0514891937     1.7759285027
C     3.4642225084     0.4475420917     0.3638642342
C     2.7596724237     -1.9336045786     0.6843351384
C     3.4731914421     -0.9085543046     -0.0364185263
C     1.9425105935     -2.6833829621     -0.271249862
C     0.1253109507     -2.8356914388     1.4320295797
C     0.6273735204     -3.1159794652     0.0700711946
C     -1.7658026089     -1.5908803707     2.5297872826
C     -1.2724073737     -2.6156696881     1.6086321022
C     -2.8608027338     -0.9231785593     1.9085461057
C     -1.8114235824     1.2977696519     2.2674383922
C     -2.8649344265     0.4748723314     1.7107119681
C     0.0217630318     2.9205744303     1.6824994765
C     -1.3400858409     2.4659932571     1.4937050494
C     2.0824238468     2.857238032     0.623334481
C     0.7643850568     3.4267933769     0.5935191407
C     3.1163502047     1.2128906036     -0.8350820613
C     2.3840987636     2.3756651212     -0.7018657023
C     3.1051192864     -1.0089454347     -1.4209768819
C     2.2356124329     -2.1249175281     -1.5919394511
C     2.7700603142     0.2761396926     -1.9004276629
C     1.2305360905     -2.0144154682     -2.5448466664
C     -0.3244733812     -3.1965621447     -1.0182788989
C     0.0144167783     -2.7164249583     -2.3020981726
C     -2.184517756     -2.6146191995     0.4635152062
C     -3.1597176858     -1.5711214674     0.6622094335
C     -1.7323461825     -2.8656153743     -0.8166104807
C     -3.3575715849     0.6943227468     0.353730592
C     -3.444861419     -0.6001092841     -0.3253338247
C     -1.9153580747     2.7083051311     0.2116692979
C     -2.9116890047     1.7948923594     -0.3506635271
C     0.2672302203     3.3804990309     -0.741244711
C     1.2366430967     2.6579553841     -1.5659251194
C     -1.094941453     3.1655303247     -0.9108357866
C     1.5879001351     0.4704684966     -2.7139243564
C     0.8991006973     -0.7100930504     -3.1201459674
C     0.8110305465     1.717490053     -2.5495584799
C     -1.0830429855     -1.9457730451     -2.8161804937
C     -2.1679589031     -1.9953945882     -1.9107666328
C     -2.918892057     -0.7874590193     -1.6577246754
C     -0.551107618     -0.7038740576     -3.3201628661
C     -2.6533008075     1.656457668     -1.7625213911
C     -1.5093316925     2.4645068884     -2.0803073117
C     -0.6058184949     1.6977906764     -2.8480177225
C     -2.5389765343     0.3963186201     -2.3935915117
C     -1.2941654089     0.449073035     -3.1629014495


