56

 C     1.4474360084     0.003291497     4.2144652595
C     0.6163052294     -1.1661384316     3.8745351403
C     1.3541644762     -2.0171041378     3.0538306429
C     2.5957044551     -0.0210259646     3.3278517997
C     2.5708228778     -1.2513508358     2.6649205239
C     2.562587549     1.1591824169     2.4760415903
C     0.6943542144     1.1092092728     3.8389437772
C     1.4098736893     1.9261686105     2.8696129351
C     -0.6886674446     -0.7526590297     3.4277742228
C     -0.6757260946     0.7110445832     3.4984719514
C     -1.311480141     -1.3867170664     2.3161256441
C     0.8041026309     -2.5665496859     1.8793735086
C     -0.5720102669     -2.3955190658     1.5482935962
C     2.7577671085     -1.3963047805     1.2668274562
C     1.7654300847     -2.3406675378     0.8003484556
C     2.923498814     1.0866858707     1.075031408
C     3.0725227181     -0.2581663773     0.4539784837
C     2.4552273132     2.1328540862     0.2492714747
C     0.6911806314     2.7183581562     1.9281001523
C     1.3651740121     3.0052402189     0.6930992424
C     -1.366050382     1.4732968747     2.5832742866
C     -0.7377743593     2.580318535     1.8689338329
C     -2.2952815713     -0.5904939706     1.5686869641
C     -2.2813955277     0.8291123674     1.67132584
C     -2.8079124974     -1.1032509859     0.3667295403
C     -0.9802318143     -2.7324287934     0.1894696393
C     -2.2894421627     -2.3403807028     -0.2165088751
C     1.3835736964     -2.4214014804     -0.5480133463
C     0.0225615936     -2.8713218248     -0.8731578846
C     2.8045668534     -0.4099890702     -0.9242728049
C     2.0666999127     -1.5383751641     -1.4309702514
C     2.3259248625     1.9832046652     -1.2023014998
C     2.4755920525     0.7145115939     -1.7827338201
C     0.6244212176     3.3638157877     -0.4494918593
C     1.2348208054     2.7783294468     -1.6319634219
C     -1.4378652006     2.7136969077     0.6209797013
C     -2.4271246387     1.6568978465     0.501719325
C     -0.7730055465     3.1469805483     -0.5362199352
C     -3.2549622398     -0.2462167673     -0.7102084077
C     -2.8125663159     1.116951805     -0.7450044132
C     -2.6799572041     -2.362751603     -1.5695814984
C     -3.2614220983     -1.030095512     -1.8917821158
C     -0.3765147412     -2.7662500513     -2.2352833692
C     -1.7667228409     -2.6343523956     -2.5866216914
C     1.4585660394     -1.1676644623     -2.6868472489
C     1.6026982656     0.2770225012     -2.8372319098
C     0.3349723063     -1.8367501484     -3.1169918789
C     0.2323547265     2.2723156161     -2.4815617567
C     -1.0544136352     2.4948388803     -1.8175078985
C     -2.1169432151     1.577830962     -1.977985066
C     0.4500023518     1.0516253284     -3.2056752611
C     -2.7778800938     -0.5808050539     -3.123902815
C     -1.9425948776     -1.6390860273     -3.6601258648
C     -0.6850972883     -1.0786283448     -3.8493071586
C     -2.012715903     0.6573595694     -3.0916328424
C     -0.7171484351     0.3623012833     -3.6451315093


