56

 C     1.5260877985     0.0374093581     4.1808629694
C     0.7068692909     -1.1386882395     4.036088
C     1.388423143     -2.085461052     3.2457938132
C     2.6316420363     -0.1091797495     3.2596505625
C     2.5804900735     -1.400084044     2.7027310465
C     2.6153742045     0.9897834674     2.3268829337
C     0.7547139923     1.1183446817     3.6846065085
C     1.4649776169     1.8110435122     2.6466690849
C     -0.6390483271     -0.7353630816     3.6295903865
C     -0.6044483128     0.7098840061     3.3900261611
C     -1.3351482656     -1.5304015431     2.7317792809
C     0.734822488     -2.7252576244     2.1593717652
C     -0.6622402464     -2.6109033786     2.0191153993
C     2.6097555715     -1.6162845479     1.2930661152
C     1.5496882368     -2.548934872     0.9540176514
C     2.9381491456     0.799699431     0.9530549485
C     2.8982676289     -0.5471980835     0.3782948033
C     2.5637755298     1.8883121369     0.1112713854
C     0.7485757093     2.5261955766     1.6457026214
C     1.4668208895     2.7797155505     0.4536077149
C     -1.3444462934     1.3131769091     2.3417125708
C     -0.7155465642     2.4075441704     1.5766699932
C     -2.270609528     -0.9296329175     1.8075722969
C     -2.3531352276     0.483605396     1.6608962665
C     -1.2403268582     -2.6835668556     0.7212375403
C     -2.3535534931     -1.7603879851     0.6379980319
C     1.0024039004     -2.6220620526     -0.3343799
C     -0.4371876139     -2.8905825429     -0.4462276702
C     2.5166276885     -0.7322204299     -1.0177894927
C     1.6516170234     -1.854983555     -1.4038356031
C     2.5493848134     1.7053153     -1.2791293024
C     2.5061418404     0.4236918552     -1.8619408372
C     0.7932831143     3.1412249814     -0.7815975538
C     1.496202228     2.5201800329     -1.8744365541
C     -1.3451208769     2.8260688225     0.3822855564
C     -0.5863289376     3.1636363531     -0.8247841629
C     -2.935953616     0.9582840342     0.4444210498
C     -2.5397710452     2.2009535598     -0.0673402215
C     -2.8489346995     -1.2857558121     -0.6117598748
C     -3.2495180093     0.0694065633     -0.6875515472
C     -1.0734630884     -2.7050427943     -1.6909605523
C     -2.3407626228     -1.9286636003     -1.8025392854
C     0.9955711857     -1.8137347114     -2.6589977995
C     -0.3025288924     -2.4077222954     -2.8305827922
C     1.5917937846     0.534317953     -3.0001139694
C     0.8729403909     1.8282761739     -2.9072507232
C     0.9429566886     -0.5759924882     -3.4468268432
C     -1.2809357555     2.5983911937     -1.9963863861
C     -2.499845893     2.0853674287     -1.5146364088
C     -3.0162456828     0.8150379096     -1.9130803715
C     -0.5757428362     1.870614243     -3.0354712869
C     -2.3260491668     -1.256101138     -3.0366428815
C     -1.1159251957     -1.6126327852     -3.7376306393
C     -0.4230442745     -0.4303944689     -3.9663520349
C     -2.4531098702     0.1956132205     -3.038212678
C     -1.2283848403     0.7361388579     -3.6085190755


