56

 C     1.4248700009     -0.058887318     3.8803281605
C     0.6746099725     -1.218990782     3.6532577285
C     1.2759558865     -1.8915807106     2.5229825274
C     2.5781191356     -0.0087755421     3.0228566228
C     2.4515503097     -1.0902499566     2.1102532961
C     2.6737329939     1.3106740366     2.4904572904
C     0.6194403912     1.0865239824     3.5630192701
C     1.3598239393     1.9495608212     2.7079285077
C     -0.6977605257     -0.7868458676     3.5022782673
C     -0.6999021287     0.6627006469     3.2256300493
C     -1.5111398724     -1.5758835055     2.7754336265
C     0.4661825591     -2.5302764176     1.5618475521
C     -0.9287028906     -2.667935995     1.9615898515
C     0.7606281808     -2.4551435162     0.119822166
C     2.7414677034     -0.9308874596     0.7159933999
C     1.9229161773     -1.6504410189     -0.2904511443
C     3.2854973539     1.450030246     1.2586006027
C     3.3785481651     0.2987266177     0.3502809749
C     2.9054988868     2.5601936882     0.4763061056
C     0.7034181811     2.5888975283     1.6193528258
C     1.6061984637     3.120111165     0.6239555101
C     -1.3578190271     1.1463400724     2.0479505485
C     -0.6601132546     2.1550487657     1.2236597974
C     -2.5895222468     -1.008072296     2.0024931518
C     -2.4299246861     0.3155590799     1.4593054534
C     -1.880447663     -3.0267145026     1.0452692376
C     -3.0360037558     -2.0791185806     1.1845204289
C     -0.2972109818     -2.7664990162     -0.849462223
C     -1.6041735938     -3.1614811857     -0.3444960029
C     -0.2667423856     -2.1630634466     -2.1972550686
C     1.9635946893     -1.1680148134     -1.622145787
C     0.8592053146     -1.3597040112     -2.5305410068
C     3.3149454816     0.8109336449     -1.0035708245
C     3.1134389114     2.2394803987     -0.9363236541
C     2.6211637227     0.0866584836     -1.9718854639
C     1.1280759999     3.3478576582     -0.701027756
C     2.1240848743     2.8488870531     -1.6903946197
C     -1.0789798792     2.318987426     -0.1560670587
C     -0.1360304618     2.9444679709     -1.0913859901
C     -2.902702531     0.5454280273     0.0871331549
C     -2.1682552814     1.5255451303     -0.7339502689
C     -3.5598953364     -1.8607279878     -0.0428351266
C     -2.8049490579     -2.7224660575     -1.0161917389
C     -3.6112849406     -0.5282880111     -0.5894426076
C     -1.5108405881     -1.8323564539     -2.8829270568
C     -2.7637369801     -2.0541931518     -2.1999574943
C     -3.4184416586     -0.7342780017     -1.9955916404
C     -2.1516251312     1.3266892912     -2.1677406172
C     -1.6267008112     -0.5450160598     -3.4733505431
C     -2.7215803659     0.1685422944     -2.7511151101
C     0.7429835545     -0.1507398325     -3.3240563728
C     1.7723428799     0.7683689313     -2.9331666112
C     1.4279801022     2.125859945     -2.6851415839
C     0.0113873804     2.4108001312     -2.4620014506
C     -0.5525643123     0.3268721655     -3.6038253954
C     -0.9406108839     1.586886336     -2.9462058601


