56

 C     1.561897218     -0.1530342978     4.6451258007
C     0.7608822838     -1.2680667719     4.7268306602
C     1.3540138028     -2.3638947473     3.9893561663
C     2.643072144     -0.4644225563     3.6822360969
C     2.5067049249     -1.8508526097     3.2652041539
C     2.5999051471     0.5277949933     2.7007409933
C     0.7534779989     0.9307837926     4.0791846597
C     1.443476725     1.4406407859     2.9837878673
C     -0.5868404157     -0.9517518036     4.1715790582
C     -0.5821805599     0.4249114664     3.7755035632
C     0.3842365009     -2.7526461099     3.0400996632
C     -0.816063393     -1.9148832102     3.1536239135
C     2.2819224925     -2.104684002     1.8687517047
C     0.982091144     -2.8047878446     1.7415126156
C     2.8116004569     0.2118358109     1.3107375071
C     2.5902228025     -1.1506525367     0.8494203189
C     2.4881742942     1.230952501     0.4132415585
C     0.7466747412     2.078687518     1.9055667925
C     1.499487113     2.2462837498     0.7358354456
C     -1.2487892307     0.830039859     2.5636332784
C     -0.6888598627     1.8881361549     1.741372676
C     -1.5297961309     -1.5661308337     1.9756460712
C     -1.9917874397     -0.1858613482     1.8390440633
C     0.2039632677     -2.6473299222     0.6055213245
C     -1.2075525539     -2.2228460549     0.7401794292
C     2.0109464526     -1.3325482139     -0.4793927734
C     0.8764049465     -2.2150891062     -0.6036123609
C     2.3760448376     1.0003835268     -0.9988190347
C     2.1281059077     -0.3007243937     -1.5096797478
C     0.9156499285     2.6924249379     -0.4908081692
C     1.6885815989     2.1268222873     -1.586020039
C     -1.2891916626     2.2181533274     0.4550181154
C     -0.4923464059     2.825344694     -0.6226668472
C     -2.6005808172     0.1756452843     0.6341545886
C     -2.4052346049     1.457024565     0.0296095047
C     -1.9316833835     -1.8930754129     -0.4493606726
C     -2.8009868935     -0.7620585987     -0.4489251152
C     0.1228026173     -2.1996386598     -1.788118196
C     -1.3483832928     -2.2411518449     -1.7184780926
C     1.4416763018     -0.4110455345     -2.81686109
C     0.5265227694     -1.5202543314     -2.9758030066
C     1.1645595243     2.0531232375     -2.8461258397
C     1.1552119481     0.7794476611     -3.5766777596
C     -0.9983149716     2.8589272191     -1.9686709703
C     -0.0937484354     2.7266100438     -3.0875619938
C     -2.8185261793     1.3603268917     -1.370847952
C     -3.1055912244     -0.0351437944     -1.6582668097
C     -2.2415058466     2.1873592428     -2.3378473642
C     -1.8236699004     -1.690555407     -2.898368044
C     -0.667196719     -1.3614254024     -3.767494993
C     -2.7296406619     -0.5701895244     -2.9240419999
C     0.0027983988     0.852513351     -4.4517985928
C     -0.736731384     2.0439825569     -4.1352941604
C     -2.0722227199     1.6676692149     -3.6879827837
C     -0.9444900828     -0.2128501786     -4.468549975
C     -2.2691935362     0.3117703684     -3.9544432472


