56

 C     1.5233355485     0.0465330977     4.1111375644
C     0.6975038713     -1.1539969028     4.0730884078
C     1.3594968154     -2.1271358378     3.3046061662
C     2.6099471389     -0.1561725407     3.1803110796
C     2.5734423793     -1.4974910437     2.7570344412
C     2.5572820038     0.8613828738     2.1397898802
C     0.7218582054     1.0520612263     3.5385761321
C     1.3762281509     1.6452893796     2.3778224119
C     -0.6571059819     -0.7914716274     3.7019226777
C     -0.6542199091     0.6421012634     3.4094051497
C     -1.3676399317     -1.6101788412     2.8157914588
C     0.7095733784     -2.7747004725     2.2047906231
C     -0.6662006442     -2.601136165     2.0144599103
C     2.6754008474     -1.8098682432     1.3792448274
C     1.5317499596     -2.6335332224     1.0159494115
C     2.915309903     0.5818291776     0.7984355751
C     3.0878749012     -0.8215026301     0.4460266151
C     2.4324575875     1.5017457651     -0.2344511619
C     0.6126221817     2.1945832042     1.3283271553
C     1.2437775157     2.2893851245     0.0005538429
C     -1.4467644174     1.1974655599     2.3926685174
C     -0.8349156302     2.1645002682     1.462587989
C     -2.3774041198     -1.0314860198     1.9725596855
C     -2.5531932796     0.3805881865     1.8706632239
C     -1.2614582323     -2.5981129783     0.6827626408
C     -2.4634403625     -1.8281837254     0.758715858
C     0.9658460713     -2.6166782877     -0.309624758
C     -0.4839339633     -2.5907663465     -0.5082202617
C     2.889128803     -1.1865372775     -0.9113668663
C     1.7860529703     -2.0639129197     -1.3106658774
C     2.7721576099     1.1582336452     -1.5993385908
C     3.0103761085     -0.2296428585     -1.8990612707
C     2.0352277769     1.6712524386     -2.6871370993
C     0.4225327259     2.7192207417     -1.135518221
C     0.8562914241     2.4081895541     -2.4908297957
C     -1.6094978912     2.5786671552     0.3522303295
C     -0.9727028454     2.86241552     -0.9438935247
C     -3.2868557827     0.8566198476     0.7481064324
C     -2.924597184     2.1046931781     0.13642383
C     -3.0357606063     -1.2992335903     -0.3889520224
C     -3.693037129     -0.0416287249     -0.3011892847
C     -1.0390732292     -1.9757481179     -1.7384547352
C     -2.3444736957     -1.4207835003     -1.6676003991
C     1.2822099139     -1.6261458309     -2.6003922612
C     2.1861920087     -0.6164299996     -3.058833984
C     1.7171582853     0.5461724799     -3.6374968487
C     -0.1376615152     -1.4857322614     -2.8076887912
C     -0.119192864     1.9074492505     -3.4490467616
C     0.3813974379     0.6491876448     -4.0011124339
C     -0.564035541     -0.3615706845     -3.6245841929
C     -1.9240764235     2.4537905135     -1.96587148
C     -3.075283525     1.9570700025     -1.297274055
C     -3.4767214492     0.6283747289     -1.5498874626
C     -2.703539986     -0.2321705273     -2.4325892392
C     -1.4643330477     1.7804079927     -3.1273858974
C     -1.7953123563     0.3427413372     -3.2955245601


