56

 C     1.4826222305     -0.0951766865     4.2048428517
C     0.6951897641     -1.3119280458     4.0459014247
C     1.5212978022     -2.2622330264     3.4101946534
C     2.6578361775     -0.2246658883     3.3266303275
C     2.7216725157     -1.5139049947     2.8584526089
C     2.6406237469     0.8442604906     2.3359523408
C     0.7471910548     0.9462285008     3.665322034
C     1.5022440163     1.653154566     2.6418946558
C     -0.5617568486     -0.9775578621     3.4107469161
C     -0.5662405742     0.4828633489     3.2487424297
C     -1.0841542364     -1.7682356124     2.3286285571
C     1.0293408597     -3.0365404854     2.3768995439
C     -0.2876121637     -2.8690242567     1.8606112848
C     2.8389061224     -1.8211410207     1.4377530258
C     1.9286050472     -2.8726833446     1.2132441618
C     2.9498243269     0.5955079084     0.9447815729
C     2.9505413701     -0.7822141953     0.4285130051
C     2.5640584433     1.6298067288     0.0747411034
C     0.8262121178     2.3878680639     1.6455840698
C     1.618135314     2.645604837     0.4823698211
C     -1.2331389108     1.1135833221     2.2044887538
C     -0.6058597658     2.2483333779     1.4804371519
C     -1.9980228711     -1.1235646008     1.3740942275
C     -2.2111120054     0.3103282661     1.47371338
C     -2.265224896     -1.7431291756     0.080383213
C     -0.1969701797     -3.0413347743     0.4121273225
C     1.1952567193     -2.9677775301     0.0299506338
C     -1.2015695182     -2.6025813745     -0.4598693295
C     2.4269931435     -1.0348242817     -0.9170065776
C     1.5683903349     -2.1960742812     -1.105003766
C     2.4036044407     1.4168723475     -1.3616826092
C     2.2458492359     0.0840218024     -1.8664757474
C     1.0128456086     3.1362596302     -0.6803769409
C     1.5783576557     2.4475299792     -1.849899078
C     -1.2183013214     2.7275222     0.2569132645
C     -0.3693491995     3.2082633017     -0.8352119812
C     -2.9717104586     0.9595998794     0.4887357296
C     -2.4872921706     2.2237001487     -0.1297400911
C     -3.0866609303     -1.0707158814     -0.8557820685
C     -3.591774625     0.2105065764     -0.5283173912
C     -2.7618001225     -1.042579114     -2.313005399
C     -0.8033934537     -2.4346867431     -1.8159172962
C     0.5851647618     -2.2077457304     -2.1287664922
C     -1.6112280893     -1.6648953827     -2.7682211949
C     1.3722429322     -0.0407362699     -3.0024811394
C     0.5998516904     -1.2361992183     -3.1600575647
C     -0.7110512985     -0.9587909658     -3.6430884286
C     0.557728126     2.2603638725     -2.803955031
C     -0.6745193519     2.8577820167     -2.2448145077
C     0.5047952022     1.0358701983     -3.4679191245
C     -0.8130398601     0.4629618182     -3.8036772281
C     -2.899400243     2.2346997194     -1.4985775957
C     -3.5897899112     1.027534489     -1.7314308766
C     -3.0324771753     0.3032676679     -2.8045303372
C     -1.9011356451     2.3389387454     -2.5643083083
C     -1.9907949243     1.1077069495     -3.40253397


