56

 C     1.4274754933     0.1321292694     3.7858518896
C     2.5781912357     -0.0196047829     2.996707028
C     2.5032140271     -1.3273785988     2.3652420081
C     0.5422755642     -1.040055468     3.5464536925
C     1.2083518525     -1.8833455326     2.6088242445
C     -0.7751594059     -0.5905712316     3.3045819473
C     0.658538176     1.2725652231     3.6482369456
C     -0.7613661649     0.8387722377     3.4664382396
C     0.9297126689     2.2357349638     2.6424531817
C     2.8906690161     0.9312509509     1.9697780132
C     2.0305268583     2.0650695281     1.7245112862
C     2.9974505007     -1.2327640396     1.0445216092
C     3.3742646461     0.1594729321     0.8361066294
C     2.3938353284     -2.0057838382     0.0012382585
C     0.4638099969     -2.4947489713     1.5479075409
C     1.1508562993     -2.7209553934     0.2807015144
C     -1.573292648     -1.1712345644     2.2668549715
C     -0.9971366455     -2.3129599292     1.5520106191
C     -2.5306006671     -0.3076684128     1.574531685
C     -1.4064600112     1.677575598     2.5886838792
C     -0.3770206979     2.6436834318     2.1256264669
C     -2.3945643452     1.1466210841     1.6680698469
C     -0.5122559614     3.2158844306     0.8933257683
C     1.8263473388     2.5132630596     0.3118331377
C     0.5851631171     3.1407249656     -0.0617429127
C     3.2972341647     0.6744770382     -0.4480103886
C     2.5186728226     1.8673127763     -0.7394628891
C     2.6196078136     -1.5292535857     -1.3455577613
C     3.117186421     -0.2317256397     -1.5239524392
C     1.6470309976     -1.7524824626     -2.4236538942
C     0.3513339237     -3.1247833634     -0.8493705236
C     0.5781503748     -2.573719358     -2.2029667034
C     -1.7193622111     -2.8197169748     0.4447822846
C     -1.0165887123     -3.3167177061     -0.7052914867
C     -3.1628890487     -0.8301608201     0.3975966832
C     -2.8589306657     -2.1232340763     -0.0458359133
C     -3.389366463     0.0008280273     -0.7966465703
C     -2.6466473771     1.9351052966     0.5140290703
C     -1.7504913507     3.011415846     0.1808214211
C     -3.0724524321     1.3386103126     -0.7455954543
C     -0.0173123325     2.9565604396     -1.3570303513
C     -1.4479580552     2.9394179714     -1.1886810237
C     -2.2758634256     1.9420393164     -1.8182039819
C     1.9133643783     1.6846308805     -2.0727601998
C     2.339972635     0.4359221872     -2.5740089174
C     1.4576917022     -0.4881399796     -3.1521839248
C     0.5795579991     2.1168228942     -2.3514995934
C     -1.7293136258     1.1369977502     -2.8003135108
C     0.1448155397     -0.0664339809     -3.4807761139
C     -0.2815484159     1.238556261     -3.1128428743
C     -0.7369616332     -2.2796637346     -2.8006477303
C     -1.7089386506     -2.8412166953     -1.9194078635
C     -2.8262815112     -2.1249005732     -1.524874451
C     -3.0405051843     -0.7904928505     -1.9781975397
C     -0.9739617672     -1.0046623638     -3.3408350602
C     -2.1420714521     -0.247069775     -2.9273697499


