56

 C     1.5998490034     -0.219131462     4.3094167852
C     0.7834693599     -1.327884974     4.1734264253
C     1.3126321002     -2.2794115139     3.2099628046
C     2.666252041     -0.3751441089     3.3143484015
C     2.5246343142     -1.6961922279     2.6779338687
C     2.6210609453     0.7421165393     2.4758381217
C     0.799298618     0.9367058082     3.9659371417
C     1.4437715041     1.5672124399     2.8968613271
C     -0.576124203     -0.959245112     3.8056742613
C     -0.5720847057     0.4538198384     3.6467044459
C     0.2553418421     -2.587053708     2.3252995754
C     -0.9261405094     -1.7664730411     2.6793849042
C     0.4976828189     -2.8356945892     0.9419731488
C     2.7299944337     -1.8005285435     1.3059591828
C     1.8229282415     -2.5681176188     0.4850064192
C     2.9299670643     0.6549643544     1.0643723717
C     3.1000650038     -0.6361008583     0.4932064151
C     2.4040281411     1.6562379176     0.2053184072
C     0.7075669982     2.30889984     1.9173030942
C     1.3308190411     2.5420721779     0.6778315838
C     -1.3133011567     1.0300072971     2.5904493277
C     -0.7607108948     2.2138908864     1.9221109075
C     -1.7646948203     -1.263193921     1.666224998
C     -2.1411040241     0.1426940833     1.7735452597
C     -0.605050674     -2.6988874196     -0.0008795432
C     -1.7485925092     -1.8846873935     0.3334459771
C     -0.2657006712     -2.830326916     -1.3936631154
C     2.0286990912     -2.15983736     -0.8846100477
C     2.7252663148     -0.8817260464     -0.8736585655
C     1.0853276266     -2.4148011767     -1.8311113212
C     2.2031783547     1.4451951133     -1.1885733358
C     2.3080406719     0.1334924856     -1.775971336
C     0.5897298172     2.9899426456     -0.4735819515
C     1.1806941036     2.3639003389     -1.6584062444
C     -1.4563507706     2.7306971291     0.8218460694
C     -0.777617603     3.1869993083     -0.389364644
C     -2.8476932039     0.7154167476     0.6960052406
C     -2.6238358391     2.0584329641     0.3603631419
C     -2.5624540537     -1.3004522381     -0.7502425105
C     -3.1194174918     -0.0117761961     -0.5481807782
C     -1.1392951797     -2.4795144424     -2.4024515922
C     -2.3041813273     -1.6863827611     -2.1322020068
C     0.9332872705     -1.5566768352     -2.993535513
C     1.4492232941     -0.208345985     -2.9300665589
C     -0.3792687481     -1.8086793647     -3.4837550571
C     0.4259031336     2.0842910597     -2.7697789995
C     0.6163856279     0.8246890079     -3.5078394215
C     -1.6108430355     2.8699158901     -1.5591890111
C     -2.7641918102     2.202478376     -1.0808328585
C     -3.1830422873     0.9626075281     -1.6338582861
C     -1.0102159151     2.4186019554     -2.7663781218
C     -2.4282951678     -0.7437849662     -3.1987790861
C     -1.1729681886     -0.7958283427     -3.9916290088
C     -0.6495944485     0.5108591302     -4.0757270227
C     -2.7169200909     0.61355422     -2.929605873
C     -1.6554074774     1.4161840199     -3.5118778068


