56

 C     1.585621802     0.0876140602     3.8605718054
C     0.7934556998     -1.0555009132     3.7033616943
C     1.3742874526     -1.9164261862     2.7047237616
C     2.5799588599     0.0745890399     2.8002744405
C     2.4698426153     -1.1841712646     2.1045628636
C     2.4638306425     1.256505788     2.0420942449
C     0.7480607849     1.2287450409     3.641928914
C     1.3855981427     2.0653161571     2.6679058793
C     -0.5973335138     -0.6345131909     3.5264879983
C     -0.6177614332     0.8255694342     3.4425701411
C     -1.391840405     -1.3574119562     2.6709663521
C     0.5388236171     -2.7356435081     1.8900112715
C     -0.8797407453     -2.5291056308     1.9577693434
C     1.0830260592     -3.1288322416     0.6212054104
C     2.7220809258     -1.248306643     0.7005315062
C     2.1557940147     -2.3620670512     0.020309751
C     2.6514085455     1.275084502     0.6080482625
C     2.9292420536     0.0061380484     -0.0464160703
C     2.0104056093     2.3645342568     -0.1427388887
C     0.590457732     2.8520245127     1.8812775061
C     1.0086094205     3.1674367674     0.5102503217
C     -1.418549399     1.4919993494     2.4595971873
C     -0.8532431292     2.6774587648     1.8888927699
C     -2.3589961335     -0.6942954598     1.7959430028
C     -2.3601985187     0.7139206189     1.615007041
C     -1.7040007417     -2.7166260453     0.7972109149
C     -2.647765572     -1.6058226089     0.7177111065
C     0.2137677326     -3.5124878775     -0.4326531504
C     -1.17491957     -3.2559951005     -0.388463677
C     1.9318739878     -2.3526175575     -1.4296778702
C     0.7335914213     -3.0717380688     -1.7120996259
C     2.7820236727     -0.0550337316     -1.4705847615
C     2.2058374303     -1.2049344081     -2.1415856521
C     1.8569100232     2.235035816     -1.5652506201
C     2.3327529347     1.0699714321     -2.1864448048
C     0.6245037353     2.6137200686     -2.2763294175
C     -0.1451678462     3.5408952351     -0.1914101251
C     -1.2832737283     3.1152200697     0.6127203116
C     -0.4035066579     3.1835323276     -1.5431462228
C     -2.7862947676     1.2149112132     0.2908796276
C     -2.2161774094     2.4500059444     -0.1955686726
C     -1.7460552241     2.5879085953     -1.5860579877
C     -3.0659068761     -1.133210834     -0.5135699601
C     -3.1895387229     0.2845047068     -0.7143854863
C     -1.5434687693     -2.6886149074     -1.6955204908
C     -0.3110453819     -2.5128060116     -2.4799495064
C     -2.5278229581     -1.7235194894     -1.7606582242
C     1.2446673943     -0.7332376855     -3.1673590661
C     1.4186499536     0.6569491081     -3.2612773203
C     0.32873973     1.558638569     -3.2599630924
C     -0.0782099847     -1.3095794485     -3.2541267805
C     -2.0259345008     1.6088383343     -2.5183504517
C     -2.86572305     0.5248814522     -2.1020359014
C     -2.4200920589     -0.6658437586     -2.7208787566
C     -0.9739455588     1.0469102013     -3.3711548165
C     -1.1773093567     -0.3905178357     -3.4051560194


