56

 C     1.2012985874     -0.0853485618     3.8480806812
C     2.2876113967     -0.3548444745     3.0568673438
C     2.1848681319     -1.7204685836     2.5143090602
C     0.3415773431     -1.2847114854     3.8067001866
C     0.904218774     -2.2329982481     2.8380261222
C     -0.9416683765     -0.8403411491     3.6208571614
C     0.3810240241     1.0917145666     3.5385406977
C     -0.9587501246     0.63168677     3.5689192699
C     0.7827714082     2.011202888     2.5073561389
C     2.7410052234     0.5221788855     2.0092864661
C     2.0674620242     1.7679942934     1.7846816603
C     2.6700497696     -1.6747461136     1.1923024221
C     3.0959866974     -0.3034464079     0.8809285329
C     1.9995294559     -2.4045936672     0.2195463777
C     0.0835277668     -2.7804683019     1.7906749893
C     0.7303998329     -3.0009851539     0.5298339067
C     -1.8133995466     -1.3458849384     2.5929116142
C     -1.3590797481     -2.3970312913     1.7298649765
C     -1.9070775314     0.9972335521     2.5930890994
C     -2.5100047993     -0.2169004918     2.0263464198
C     -0.2741042285     2.5957995744     1.7340171652
C     -1.6038251666     2.0532123085     1.7436908155
C     -0.0618849709     3.1178644367     0.3988884023
C     2.262503623     2.3289846109     0.5084418637
C     1.2312868056     3.1461587085     -0.1491988337
C     3.0811320953     0.1825309124     -0.4462786386
C     2.9129200016     1.6010411139     -0.562272736
C     1.9686154871     -1.9385458059     -1.1587369055
C     2.5490583377     -0.6980320704     -1.5250324753
C     -0.0026121067     -3.0605903794     -0.7188844306
C     0.7632708313     -2.432068718     -1.7690664276
C     -2.0567026667     -2.51173392     0.512612179
C     -1.4057089347     -2.9912726327     -0.7161768776
C     -3.0277392471     -0.2299438503     0.7111826995
C     -3.0112726765     -1.5137055397     0.0743101661
C     -2.1245711017     2.0770333144     0.3849859945
C     -1.2066983262     2.8258288591     -0.4309418774
C     -2.8821446615     0.9938090971     -0.1275277094
C     -1.0546985252     2.5687350006     -1.8417131906
C     1.3960988736     3.0774748778     -1.5441181809
C     2.4688587341     2.1617762369     -1.7997422951
C     0.2690765515     2.7347991675     -2.4193932595
C     2.0046710183     -0.082442174     -2.7077682848
C     2.0465197327     1.3205590365     -2.8436315169
C     0.7389295209     1.7716216392     -3.3340735547
C     0.1098981543     -1.7297607321     -2.8457944015
C     0.7496255097     -0.5540839736     -3.3093240917
C     -0.0293329113     0.6324911288     -3.6873982419
C     -2.0776389439     -2.4722722291     -1.8372602837
C     -3.1036158737     -1.5981189216     -1.3495203347
C     -1.341871528     -1.7821669324     -2.9031459028
C     -2.8648808198     0.8463002824     -1.5600489164
C     -1.8992462637     1.5749366348     -2.3943716802
C     -1.4011863937     0.6377966795     -3.4099423846
C     -3.0489868589     -0.4303778423     -2.1299802431
C     -2.0550933903     -0.6028799858     -3.1959087277


