56

 C     1.0468007638     0.1212612735     3.9288332683
C     2.1790346979     -0.2091376828     3.2415752224
C     2.1176043976     -1.6276303193     2.8308203576
C     0.1730882485     -1.0939944494     3.8894833633
C     0.7812815599     -2.0763568359     3.0255568548
C     -1.084189917     -0.6528119842     3.6121840505
C     0.260356003     1.2718147875     3.5310050567
C     -1.0941858672     0.8301889721     3.5591552941
C     0.6922346027     2.1003843678     2.4307045168
C     2.6493843826     0.554021642     2.1079860596
C     1.9381021472     1.7320311699     1.7107855217
C     2.7600956182     -1.7435586735     1.598694073
C     3.1250871863     -0.3901817072     1.1252396598
C     2.2252974636     -2.6490329977     0.6757239028
C     0.0369263645     -2.5993388047     1.8770513553
C     0.827307319     -3.0232517595     0.7840017201
C     -1.8743109424     -1.1387882182     2.5020433864
C     -1.3292968104     -2.0810566832     1.5840126289
C     -2.0448801525     1.2239831683     2.6207161099
C     -2.6251398212     0.0035563478     2.0305418335
C     -0.3514789694     2.7162054715     1.6570032714
C     -1.7264275961     2.2874010673     1.7552366044
C     -0.1487688716     3.1364826422     0.2848847877
C     2.0559898815     2.0780431485     0.3293071554
C     1.0482945991     2.858504775     -0.3593879743
C     3.1022284495     -0.0920439932     -0.2679967274
C     2.6354079305     1.1986145278     -0.6379152759
C     2.4885960435     -2.4292523971     -0.7008414514
C     2.8740636767     -1.175563506     -1.2026587903
C     0.293997463     -3.0855355166     -0.5885381793
C     1.361004185     -2.8904533894     -1.4846751055
C     -1.8312221729     -2.0447428308     0.1923681969
C     -1.0213560666     -2.5882326903     -0.9044382917
C     -3.0862143774     0.0388417164     0.7391894463
C     -2.792074729     -1.050534082     -0.1588850943
C     -2.3435304457     2.363724869     0.4483306244
C     -1.4109981631     3.0107278478     -0.4511000843
C     -3.0952048172     1.2789074619     -0.0309832577
C     -1.4225707763     2.7203298437     -1.8037479991
C     1.0595418278     2.5016785172     -1.763198595
C     1.9873240155     1.4329371057     -1.9308833513
C     -0.1420562108     2.5285642286     -2.5204314785
C     2.1323217696     -0.9480202336     -2.4559630314
C     1.2300018414     -2.0663840133     -2.6286692936
C     1.7253177994     0.3568610578     -2.8571168474
C     -1.2161847051     -2.1134215054     -2.2358195505
C     -0.0626658125     -1.8474821543     -3.121476131
C     -2.9310165513     -0.5325601312     -1.5046060334
C     -3.0675682363     0.9270149569     -1.4248276028
C     -2.3609155248     1.7386820484     -2.3373325095
C     -2.2170938137     -1.1137342463     -2.5518536111
C     -0.3300928879     1.6026232793     -3.5529275726
C     0.5382236396     0.4702065008     -3.697703868
C     -0.3182407028     -0.6726689442     -3.8473987897
C     -1.7208872425     1.115261473     -3.4550316258
C     -1.6963416835     -0.2630845584     -3.5960262394


