56

 C     1.3142105905     -0.0487388858     4.2629249576
C     0.5294783382     -1.26976862     4.0643415778
C     1.3813125067     -2.2517154199     3.5458291024
C     2.5514587824     -0.2230107192     3.4957106414
C     2.6424218449     -1.548554357     3.1024069266
C     2.6209074293     0.8106666954     2.4699674866
C     0.6218263953     0.9741958586     3.6439930515
C     1.4667635973     1.6516596807     2.6625725657
C     -0.6815613514     -0.940464377     3.3351600211
C     -0.682089884     0.5071319109     3.1676085864
C     -1.1122418699     -1.7234423324     2.2198279431
C     0.9599481422     -3.0352458266     2.4717580173
C     -0.2907705957     -2.8461218866     1.8280356618
C     2.9063472558     -1.9224334865     1.7353390868
C     1.9958149651     -2.9749255933     1.4224100206
C     3.0340704007     0.5115447588     1.126613574
C     3.161955598     -0.9076598808     0.7225405061
C     2.6113130146     1.447247808     0.1409982544
C     0.8627816318     2.3449760281     1.6143481457
C     1.6256690215     2.4459836949     0.4138332506
C     -1.2921874779     1.1300698494     2.0875578588
C     -0.6112225029     2.2906731722     1.4723385324
C     -1.9211934563     -1.075341709     1.1862049164
C     -2.1608528113     0.3389208859     1.2125482592
C     -2.068151093     -1.7362909498     -0.1129045024
C     -0.0759842237     -3.0617619756     0.394589814
C     1.3800029626     -3.0865359657     0.1714285787
C     -0.931998239     -2.5690776503     -0.5654875742
C     2.7913179839     -1.2282329135     -0.6130472218
C     1.8886572054     -2.3215117791     -0.8818990805
C     2.4447651451     1.109824378     -1.276358025
C     2.483185997     -0.2207982131     -1.6194788316
C     0.9970914671     2.8421147306     -0.8138679239
C     1.4616324039     1.9954856385     -1.8861354534
C     -1.1726407275     2.8365042649     0.3391461886
C     -0.3313634414     3.275715657     -0.7876455891
C     -2.8469501472     1.0091849016     0.1067324451
C     -2.4358364003     2.3542291249     -0.2257856816
C     -2.8770483828     -1.1492173788     -1.0761340211
C     -3.3987958923     0.2043478962     -0.9373987132
C     -2.5723308238     -1.3260762347     -2.4978082254
C     -0.3733575795     -2.2566812625     -1.9019506947
C     1.0215553911     -1.9684116807     -1.9694346197
C     1.4377867285     -0.7167706309     -2.5203908487
C     -1.1762987543     -1.5992584797     -2.8332598362
C     0.5737180907     1.5815934     -2.9177532893
C     0.5429498022     0.1337669453     -3.2285962927
C     -0.7111119732     -0.4661304418     -3.5922306398
C     -1.0911285     3.1381355313     -1.9540355847
C     -2.4697036469     2.7628789895     -1.5845726737
C     -0.6713103557     2.3256450374     -3.0487252166
C     -3.5601818509     0.7230149857     -2.2833949257
C     -3.0554988051     -0.2653982536     -3.2396836802
C     -1.8880761467     0.3426878063     -3.8855382567
C     -2.9904170391     1.9614247644     -2.6002629341
C     -1.8586386999     1.6899525097     -3.5629856248


