56

 C     1.3319375907     0.1268201695     3.8860914209
C     2.4816521624     -0.0753753824     3.1275692031
C     2.433105724     -1.455629392     2.5854371949
C     0.4722375925     -1.0734523256     3.7604009322
C     1.1500940162     -2.013059162     2.951774771
C     -0.8682037611     -0.6626625859     3.4413198895
C     0.5228638085     1.2439690062     3.6144887824
C     -0.8548607137     0.754006415     3.4465294281
C     0.7810175489     2.0853903809     2.510348675
C     2.8086108564     0.7984455316     2.0527349236
C     1.9444057544     1.8957809824     1.6890548416
C     2.8628467118     -1.4496865407     1.2647316758
C     3.2870578327     -0.0718380248     0.9768626295
C     2.1722504838     -2.2011195947     0.2183906883
C     0.414763039     -2.6683547361     1.9396684241
C     0.986769551     -2.883710055     0.6285656391
C     -1.6454821363     -1.3429965227     2.4176488875
C     -1.0093990561     -2.4546476576     1.7881432195
C     -2.6237099348     -0.576572273     1.6394136874
C     -1.5002522596     1.4878582323     2.4384438861
C     -0.5119249396     2.3706431874     1.8571066482
C     -2.5202846908     0.8830135601     1.6433378122
C     -0.6116855011     2.7584243116     0.5163501554
C     1.8800775465     2.3217092492     0.275365677
C     0.6218366076     2.8371293728     -0.2995557365
C     3.3166208937     0.3768922078     -0.2965265275
C     2.8113299339     1.7130306096     -0.6218899833
C     2.2663767488     -1.7432701054     -1.1611633122
C     3.0010897101     -0.5189285491     -1.4275659047
C     1.2012510761     -2.0450439626     -2.0761299002
C     -0.1075344626     -3.0834666832     -0.2905242613
C     -1.3499788301     -2.837854838     0.4378429805
C     -0.0002554936     -2.7085728531     -1.6161448274
C     -3.1478973203     -1.1793176941     0.4360994503
C     -2.4322415038     -2.2840357562     -0.2003042612
C     -3.6857240616     -0.394349674     -0.6085885264
C     -2.85073672     1.6281674116     0.4707027114
C     -1.8831417076     2.5218372488     -0.1032367385
C     -3.5676936454     1.0008323411     -0.6090775789
C     -1.9960947569     2.3582684214     -1.554511088
C     -3.0109876686     1.413154124     -1.8612694776
C     0.4486991904     2.8028296691     -1.7137990171
C     -0.8323242387     2.3798732352     -2.3011893306
C     2.5807250909     1.6891722216     -2.0151886692
C     2.6765383879     0.294434392     -2.5081540416
C     1.4485963481     2.258867209     -2.5593890791
C     0.7897465012     -1.1225753985     -3.1042220952
C     -0.5804878328     1.3412658284     -3.3033534026
C     1.534789097     0.0466045522     -3.3461969029
C     0.8091328836     1.2752281991     -3.4555719459
C     -1.1534977532     -2.1644132556     -2.3252360372
C     -2.3747687489     -2.0200587831     -1.6489394232
C     -3.1724963884     -0.8825181848     -1.9011007751
C     -2.676184084     0.2244373258     -2.6392950547
C     -0.6742904077     -1.1072485098     -3.1785216729
C     -1.3942841012     0.1326730641     -3.2877786735


