56

 C     1.353552678     0.0331653316     3.9304025099
C     0.55648884     -1.1585955989     3.7903926993
C     1.1172392895     -1.9744025068     2.7975175451
C     2.3712647421     0.0011068226     2.9124374718
C     2.2462959909     -1.1916670811     2.1880792211
C     2.2812019303     1.2117368125     2.1212878514
C     0.5001119366     1.0871701718     3.5615256421
C     1.1001395368     1.9118152674     2.5460157221
C     -0.8503862033     -0.8018269982     3.6588090284
C     -0.8778880898     0.6387380804     3.4032441626
C     -1.6858521032     -1.6439417099     2.9332478124
C     0.2869086855     -2.8018135998     1.971223677
C     -1.1307486755     -2.7294224981     2.1171705218
C     0.820858508     -3.1308233163     0.6756151252
C     2.4915438759     -1.2380745076     0.7622006245
C     1.915903479     -2.3154074391     0.0721864543
C     2.6680965179     1.2437718385     0.7583992111
C     2.8095270757     0.0028760105     0.0102306753
C     2.2295616064     2.4163689849     0.076587277
C     0.2816651537     2.601691204     1.6045727022
C     0.9689315083     3.0682281699     0.4622119477
C     -1.6876956155     1.1955422853     2.3749797606
C     -1.1402854319     2.2541070108     1.4955057898
C     -2.7190097743     -1.0329042567     2.1656530324
C     -2.7122125803     0.3278297861     1.8368567977
C     -1.9798725526     -2.8539764871     0.9261963937
C     -2.9384529434     -1.8138869999     0.9494074561
C     -0.0253186956     -3.493582384     -0.366165398
C     -1.4335164436     -3.189518155     -0.3244600359
C     1.7065671911     -2.260392117     -1.3542267573
C     0.5130811992     -2.9918558269     -1.610207316
C     2.6626437037     0.0410415136     -1.4418186353
C     2.0112413753     -1.0989726363     -2.1183757655
C     2.3619206996     2.4930748726     -1.3060899586
C     2.5764244823     1.3318933301     -2.0872156851
C     0.2920390684     3.4453194541     -0.7485549608
C     1.2039936025     3.2380129416     -1.8480269967
C     -1.7285282935     2.4371096203     0.2165554466
C     -1.0417548249     3.0346506414     -0.8987276982
C     -3.0839196334     0.396883086     0.4194450278
C     -3.1415790953     -0.9511993935     -0.1450678501
C     -2.6307240039     1.4322177772     -0.3412735694
C     -1.755475947     -2.4176429719     -1.5066426885
C     -0.5438738051     -2.4150790247     -2.3413150205
C     -2.5302969483     -1.2184956097     -1.4198514211
C     1.1100915283     -0.834595171     -3.2143595029
C     -0.231959937     -1.3471451003     -3.1651909742
C     1.74645526     1.5258094389     -3.2801921654
C     0.8194391939     2.6651941435     -3.0301068574
C     0.9899396378     0.4923872375     -3.7426808377
C     -1.4514932582     2.3440301228     -2.1355151803
C     -2.3181158226     1.2543666926     -1.7521127623
C     -2.1890043396     -0.0648040636     -2.2843550983
C     -1.1735464988     -0.2178933784     -3.3009628997
C     -0.5450700511     2.1844685265     -3.204036362
C     -0.4465467092     0.877311657     -3.7704251901


