56

 C     1.5286128184     -0.3581412177     4.5328461098
C     0.6931936643     -1.4178493656     4.3525147794
C     1.1741007018     -2.281589659     3.278199288
C     2.5935985177     -0.4465273664     3.51790702
C     2.2947597924     -1.5873312507     2.6296805187
C     2.6653113789     0.7995097804     2.9285222955
C     0.7467075172     0.8833167506     4.3070322594
C     1.5180322694     1.642914721     3.444173943
C     -0.6606020343     -0.9480466748     3.9997984143
C     -0.5900392608     0.4949203557     3.8391409481
C     0.0757946703     -2.573473019     2.4951803346
C     -1.0947368093     -1.7100818743     2.9306913911
C     0.2346572082     -2.7946935939     1.1127272398
C     2.3053047268     -1.4336077008     1.2131946534
C     1.3789466902     -2.2595878808     0.4132930323
C     2.7322197859     0.9931899492     1.5320674487
C     2.6492965945     -0.1197800386     0.6195780258
C     0.9723111219     2.3334661279     2.3543821591
C     1.8599976628     2.1106382837     1.2300153937
C     -1.173423828     1.1082174017     2.6737179611
C     -0.4301985479     2.2067149565     2.0541853573
C     -1.9246644392     -1.1430414508     1.9098305794
C     -1.9998504683     0.2966593484     1.7545550131
C     -0.9958953387     -2.9166404758     0.4178728938
C     -2.104469673     -1.9586119888     0.7710852685
C     -0.9823423414     -3.050052518     -0.9363327119
C     1.2821488731     -2.089659704     -1.0241899081
C     0.1676094904     -2.669828392     -1.707636075
C     2.3455642013     0.1659375923     -0.7576360381
C     1.8986861359     -0.9056057747     -1.6528341088
C     1.4719647629     2.3859447668     -0.0768054607
C     1.993082962     1.5385777138     -1.1397254686
C     -0.8011794962     2.629697824     0.7676319848
C     0.1797538667     2.9555417317     -0.2392912812
C     -2.4257357596     0.813323236     0.4409624915
C     -1.9095880816     2.0750233634     0.0430600421
C     -2.6795794031     -1.5100296803     -0.4292237272
C     -2.1318994738     -2.3231510838     -1.4943768799
C     -2.8541314919     -0.0920479678     -0.6522508438
C     -0.3501854439     -2.1073825172     -2.9417726904
C     -1.8082342718     -1.8334442195     -2.7325888575
C     1.5495944512     -0.5810893206     -2.9838371043
C     0.3913940456     -1.2012463623     -3.6600799993
C     1.5476203135     1.8313419305     -2.4376387942
C     1.5320283159     0.7967752062     -3.4160506957
C     -0.440104437     2.9847001659     -1.5290180811
C     -1.7879536873     2.4599477016     -1.3595194261
C     0.3214082067     2.6420118712     -2.6495252277
C     -2.8077205573     0.3378027715     -2.0102667153
C     -2.335043514     -0.5513329602     -3.0940191291
C     -2.3308279185     1.664901009     -2.36360517
C     -0.2992218072     -0.1681995495     -4.4350238282
C     0.4709651676     1.0058338909     -4.3420242924
C     -0.3565987653     2.0928676486     -3.7909946836
C     -1.6481841044     0.1858388081     -4.0674579923
C     -1.6522549496     1.5964587302     -3.6401216757


