56

 C     1.2911518639     0.0102574272     3.9060376829
C     2.4001702479     -0.1012977636     3.0780666034
C     2.4205541333     -1.4721901078     2.5390168515
C     0.4616302757     -1.2274172147     3.7183432592
C     1.1901777834     -2.131779488     2.8973469081
C     -0.8288942201     -0.7971395001     3.3493985654
C     0.4706923414     1.1281503429     3.8129999808
C     -0.8792562033     0.6341056634     3.5902539595
C     0.7046282607     2.136054989     2.8159756686
C     2.5793668725     0.797042675     1.9761092628
C     1.7101385927     1.9377203634     1.7988623681
C     2.8415628577     -1.4432077136     1.2150235811
C     2.9232669989     -0.0211235786     0.8350033064
C     2.3299604504     -2.3992618129     0.2743443435
C     0.5029774255     -2.8296400447     1.8909694749
C     1.1612022503     -3.1329502734     0.6485765138
C     -1.4895065985     -1.3299079218     2.1571520733
C     -0.8577914297     -2.4485083964     1.5518437957
C     -2.3267517263     -0.4571296772     1.3232554179
C     -1.5525367122     1.4793066666     2.7243546732
C     -0.6055911051     2.5479214008     2.3768328405
C     -2.4319231557     0.9638246612     1.6932964035
C     -0.7653313838     3.2242336711     1.1936111519
C     1.4407546922     2.3981084876     0.4119568986
C     0.3000572542     3.2101859444     0.1865356189
C     2.6915723919     0.3845014083     -0.5006125346
C     1.9748247002     1.6487621882     -0.7399316046
C     2.496940416     -2.0569790021     -1.1033430759
C     2.678108086     -0.653133529     -1.4833151359
C     1.7079297396     -2.6710230006     -2.0938130255
C     0.1363550108     -3.3530083851     -0.3594591401
C     -1.0790641971     -2.783878734     0.1594029944
C     0.4462036379     -3.2579980197     -1.7196589508
C     -2.5915626453     -0.8387987237     -0.0690966951
C     -1.9445358919     -2.0042354225     -0.6564821204
C     -3.0490213661     0.184444672     -0.9861735124
C     -2.8295392927     1.9270240599     0.7271612196
C     -2.0089658987     3.1045991868     0.5265903741
C     -3.2233063096     1.5039230199     -0.5737055713
C     -0.3613898291     3.2936025771     -1.1050303657
C     -1.7964526331     3.2981034543     -0.8825686828
C     -2.5991121689     2.3901845692     -1.5714204344
C     1.3497523119     1.798559011     -2.007177904
C     0.1399301818     2.564254635     -2.1754094522
C     2.0495919142     -0.4617282507     -2.7712741863
C     1.478884064     -1.7232387643     -3.1759233938
C     1.3224304401     0.7103173255     -2.9797929207
C     -0.5408716628     -2.6976351667     -2.5887000841
C     -1.6686258842     -2.0411240659     -2.0899344221
C     0.1376111791     -1.7769827737     -3.5387418018
C     -2.5422647002     0.2278656035     -2.3797843986
C     -2.0932043033     1.5995050485     -2.6352871313
C     -0.7549283049     1.7773518174     -3.0413064339
C     -0.0158920988     0.6596683363     -3.5582925876
C     -1.8590123692     -0.8248841845     -2.903403085
C     -0.6430943136     -0.6033776803     -3.6886831508


