56

 C     1.51479702     -0.2363062027     4.3127268481
C     0.6819385737     -1.3151816973     4.1665943866
C     1.2134383643     -2.2691300405     3.1951317457
C     2.6432930874     -0.4287361437     3.3884933629
C     2.4747212412     -1.7183748894     2.7118318425
C     2.7212209761     0.7145304546     2.5943528102
C     0.767792963     0.9444016433     3.8989089958
C     1.507433657     1.5623158133     2.9006501989
C     -0.6521573688     -0.8894811308     3.7428939089
C     -0.6127087037     0.5195570994     3.5291793128
C     0.1866697065     -2.5376323085     2.2804326558
C     -1.0093310844     -1.7178640945     2.6613154356
C     0.456617191     -2.7014020243     0.8718028001
C     2.729111958     -1.7871212647     1.3435514484
C     1.7691622657     -2.4058676726     0.4335248278
C     3.1672604438     0.6469580692     1.2341197014
C     3.2527376264     -0.6389456851     0.6280017429
C     2.8252898347     1.7595949621     0.3868096396
C     0.865543972     2.2988801799     1.8408315798
C     1.6538913937     2.6134303414     0.7174873378
C     -1.25445247     1.0668292143     2.3923702165
C     -0.5915563057     2.1607921723     1.6691072696
C     -1.832318586     -1.2279452897     1.6515842965
C     -2.10817498     0.1958825344     1.5937252425
C     -0.6311767774     -2.5726575579     -0.07602975
C     -1.8698381755     -1.9841992501     0.399538331
C     -0.351837795     -2.4605131337     -1.5024298716
C     1.962578439     -1.869332545     -0.8988108413
C     2.9118665781     -0.7878001838     -0.780837075
C     0.9396494578     -1.8587721426     -1.8619628603
C     2.8666099787     1.6320413569     -0.9981004296
C     2.7989108568     0.3234582035     -1.6077440504
C     1.056208416     3.0214031066     -0.528125114
C     1.8287218348     2.441823097     -1.6032755381
C     -1.1482680245     2.5758619948     0.4476547773
C     -0.3281146142     3.0295703163     -0.6506507169
C     -2.7580937496     0.704545624     0.4032946819
C     -2.311416785     1.9353852225     -0.1330971464
C     -2.849652225     -1.6303496726     -0.5233054857
C     -3.3700795764     -0.2244260132     -0.5167136674
C     -1.4430752966     -2.3032404309     -2.3902039791
C     -2.7439737244     -2.0571429593     -1.8613200863
C     -1.3241066784     -1.4270824465     -3.5906919882
C     0.9213312334     -0.7485131804     -2.8308221877
C     1.7677751941     0.355349477     -2.6132087685
C     1.1923526878     1.7262781817     -2.6127223662
C     -0.2879656328     -0.5042548301     -3.5762776014
C     -0.9704990106     2.6191103707     -1.8924407056
C     -2.307549757     2.1528861335     -1.5771114642
C     -0.210751751     1.9182314064     -2.8721276694
C     -0.8726366845     0.8893777477     -3.6185322612
C     -3.6657348347     0.1414159302     -1.8364748036
C     -3.3692517602     -1.0164426174     -2.6777300715
C     -2.563107114     -0.673251158     -3.7319268027
C     -2.9783347023     1.2814189187     -2.4328125596
C     -2.2607607828     0.7606370135     -3.6004295251


