56

 C     1.3017735369     0.0401254222     3.8950111706
C     2.470316972     -0.1567179141     3.1658192759
C     2.4316915154     -1.5117713837     2.6089100982
C     0.4324273852     -1.1796267293     3.7363975723
C     1.1376050878     -2.0861780791     2.9200815343
C     -0.8659106604     -0.7352502675     3.3687247037
C     0.513658598     1.180158541     3.7260356499
C     -0.8364695251     0.6946664571     3.4347973542
C     0.8187370538     2.1186670703     2.6986027492
C     2.7881344387     0.7508158863     2.0982541671
C     1.9849648748     1.9422390455     1.872117095
C     2.8379203831     -1.4505170585     1.2765845142
C     3.1727963675     -0.0550483292     0.9673666569
C     2.1985545571     -2.2805711542     0.2569818921
C     0.4158152981     -2.7699132255     1.9097704083
C     0.9867421626     -2.9808044219     0.6205696121
C     -1.6145300589     -1.3654634029     2.2961985362
C     -1.0027484902     -2.5028636142     1.711068567
C     -2.5237607067     -0.5371372414     1.467785006
C     -1.4402532468     1.4984662791     2.4561443811
C     -0.4461484879     2.4563555226     2.0361472829
C     -2.3994850546     0.9417395883     1.5356631686
C     -0.5021352518     2.996068368     0.7346771768
C     1.9066961518     2.4245138871     0.5233467037
C     0.7218706048     3.0760496608     -0.0023088348
C     3.0807566037     0.4204934941     -0.3605597141
C     2.5453751842     1.7435352854     -0.5675880166
C     2.3283104229     -1.8742620465     -1.0760727932
C     2.8817369043     -0.5508529029     -1.4033193264
C     1.3235960761     -2.2078150085     -2.0863240384
C     -0.0946344909     -3.1488190153     -0.3472317786
C     -1.3188328152     -2.8885796436     0.3608592287
C     0.0503246233     -2.7661304389     -1.7090695056
C     -2.9973750485     -1.083557276     0.2594477587
C     -2.3990485555     -2.3026172662     -0.2909183604
C     -3.3916858299     -0.2403508227     -0.8779620289
C     -2.6747579776     1.7294112326     0.407167021
C     -1.7309853054     2.7899064516     0.0110669644
C     -3.2268653842     1.1524099607     -0.8037464574
C     -1.7261951429     2.8387444907     -1.3931749943
C     -2.6477625246     1.8327830064     -1.9146619869
C     0.7099876841     2.9086846179     -1.4345157981
C     1.834320433     2.0766841892     -1.7869934174
C     -0.5091281974     2.7767462996     -2.1235869007
C     2.2988958519     -0.158248841     -2.6179100714
C     1.3534607725     -1.1754089263     -3.034102765
C     1.6884445716     1.1142609223     -2.7936516013
C     -2.0324402086     1.1462417046     -2.9838025632
C     -0.6831963589     1.7285833738     -3.1462074066
C     0.1775478037     -0.5509514353     -3.574558438
C     0.3823746498     0.9071265349     -3.4538458961
C     -1.1254631807     -2.2890011847     -2.4117329042
C     -2.3311945403     -2.1499267036     -1.6988453567
C     -2.9874420321     -0.8987399357     -2.0709047107
C     -1.0562136234     -1.1286534522     -3.3247061958
C     -2.2101739102     -0.2596995711     -3.0672943883


