56

 C     1.549129146     -0.0550001541     3.9135808525
C     0.7187035086     -1.2567622823     3.7637388561
C     1.2716610128     -2.0732072947     2.7550976907
C     2.5747087174     -0.0689177407     2.9924578132
C     2.5111356399     -1.3771962195     2.337839116
C     2.4395583193     1.1294841532     2.1447228591
C     0.703890336     1.0954639432     3.6961536349
C     1.260023777     1.8475224421     2.6015688741
C     -0.650732243     -0.833866149     3.7132669955
C     -0.6381599992     0.6529730056     3.6390861561
C     -1.5182589144     -1.5372513865     2.898967511
C     0.413982421     -2.6938574215     1.7626625137
C     -0.9915967929     -2.5653456791     2.0004218451
C     0.8719713061     -2.8186657555     0.3671027343
C     2.8934019706     -1.4522173575     1.0472273053
C     2.2019615823     -2.335390284     0.0934054557
C     2.766239149     1.0727134457     0.7767115691
C     3.2755961748     -0.2144714104     0.3110758204
C     2.0639084704     1.9313087847     -0.193896383
C     0.4104082183     2.4609684365     1.6493656012
C     0.8953735329     2.6576715995     0.2833803104
C     -1.5104343046     1.2970176067     2.7400822761
C     -1.0116370904     2.2836783306     1.8467936387
C     -2.6114488042     -0.8475765729     2.187996895
C     -2.5814777068     0.5536053464     2.0600437464
C     -1.8768449753     -2.6368613497     0.8986327169
C     -2.9030051684     -1.585506221     1.0258197449
C     -0.0709411979     -2.803971537     -0.7579140329
C     -1.4721807816     -2.7294671304     -0.4283705765
C     0.3140711757     -2.2876712294     -2.0775066488
C     2.5345663685     -1.8651716282     -1.1681844808
C     3.1782912247     -0.5317418801     -1.0195129092
C     1.6451942511     -1.7962363475     -2.249290592
C     2.163004199     1.6232925337     -1.6328043836
C     2.6633167343     0.330412031     -2.0096907699
C     1.887635403     -0.5086283459     -2.9138540533
C     1.2276000288     2.2066361089     -2.5606652152
C     -0.0765927013     3.0924813497     -0.68080835
C     0.1499843926     2.9802840467     -2.0455175531
C     -1.9219190408     2.3083470586     0.7141822793
C     -2.8328799075     1.1670389833     0.789910258
C     -1.5053294478     2.794366071     -0.4807220152
C     -3.1224444639     -1.0094322117     -0.2332596285
C     -2.3724665422     -1.8412240971     -1.1864105548
C     -3.1028191362     0.4170158472     -0.4006314347
C     -0.6831306299     -1.6607061814     -2.9283814344
C     -2.0034808692     -1.3320968382     -2.3837714905
C     0.9155115535     0.0449583637     -3.7460355007
C     0.6898569     1.4469647786     -3.658596973
C     -0.360839322     -0.6289432081     -3.8200639803
C     -1.1074671505     2.5780613329     -2.732767131
C     -2.0532219851     2.2630130815     -1.7388853508
C     -2.7095527774     0.9737040856     -1.7117695811
C     -2.3401833627     0.0562730707     -2.7576321232
C     -0.7615128687     1.669611381     -3.7375320931
C     -1.4001273597     0.4125166752     -3.7568198201


