56

 C     1.533612679     -0.0673268375     3.7865497892
C     0.681952532     -1.214117268     3.5923098498
C     1.1515249727     -1.9628367203     2.4908204076
C     2.4957837136     -0.0503496036     2.7173314934
C     2.2868983283     -1.2027656711     1.9217804235
C     2.4012607127     1.216903152     2.0340850691
C     0.7023927564     1.0449857261     3.5801252395
C     1.2668662101     1.9251749664     2.5905356929
C     -0.7035982921     -0.7986797834     3.6088548117
C     -0.7038593274     0.6570860118     3.4980876212
C     -1.6067864957     -1.5486293577     2.8629013082
C     0.2490262293     -2.6542118723     1.6160217564
C     -1.141299474     -2.5628440569     1.9197509453
C     0.6881338345     -2.9304309779     0.2397361772
C     2.5334129198     -1.2043685055     0.5134778531
C     1.9106981682     -2.267961149     -0.2867846893
C     2.703545688     1.3019853655     0.6516471324
C     2.9329828954     0.0572013357     -0.0952222623
C     2.1642249723     2.4355312591     -0.0151939154
C     0.4299541265     2.7062273538     1.7604504029
C     1.0651800836     3.1773901489     0.5529841141
C     -1.5514198536     1.324663302     2.5788978255
C     -1.0234334874     2.4453741566     1.7605338125
C     -2.6783944691     -0.8429155315     2.2394193133
C     -2.6484234542     0.5402772094     2.0362111789
C     -2.1023890538     -2.5933496174     0.8227016507
C     -3.0170653682     -1.5110977019     0.9812563994
C     -0.3184541178     -3.2878619939     -0.7017046227
C     -1.6991910271     -2.9064573277     -0.4523145254
C     -0.1154853304     -3.0958795915     -2.1007288648
C     2.1012486691     -2.2068368381     -1.7050032471
C     1.0679176613     -2.6513407767     -2.6135034171
C     2.89845296     0.1341305018     -1.5202331322
C     2.6060429678     -0.9953884336     -2.27184428
C     1.9920166297     2.4368030191     -1.4758599304
C     2.2924841482     1.296778603     -2.1963282276
C     0.2663177808     3.6377578975     -0.5356509313
C     0.8062218388     3.1295488306     -1.7954494131
C     -1.7219995629     2.7581313721     0.5586750207
C     -1.0987068936     3.4208603052     -0.5291103246
C     -3.0953121184     0.7301876348     0.6493672674
C     -3.2322253652     -0.5619202308     -0.0240406321
C     -2.6447092086     1.7909819077     -0.0582446768
C     -2.1479282555     -2.0788593337     -1.5859483844
C     -1.2227434402     -2.2550049112     -2.6184978698
C     -2.7030052381     -0.7754236391     -1.355562847
C     0.7400768888     -1.5344437596     -3.5419138763
C     1.695722281     -0.5808917734     -3.371458315
C     1.3672685023     0.7975068453     -3.1994531264
C     -0.6716957728     -1.1878790168     -3.3682008934
C     -0.2341214411     2.4856618684     -2.5375082183
C     -1.4302274172     2.6965343112     -1.7833101092
C     -2.2953970164     1.6536333717     -1.485526357
C     -2.1587539373     0.3491397667     -2.1080705924
C     -0.0059555262     1.2165727823     -3.1653304019
C     -1.0586401958     0.1630432853     -3.0665144925


