56

 C     1.5701929426     -0.1946948303     4.3331847591
C     0.8323039053     -1.3665115364     4.3266408895
C     1.3693858303     -2.2597220604     3.3103476494
C     2.6021194275     -0.2562839913     3.3112513254
C     2.5171551059     -1.5939189111     2.7119683793
C     2.3824073698     0.8370332805     2.4530461862
C     0.6799003701     0.9280412838     4.0763261169
C     1.21708247     1.6169716924     2.9726226903
C     -0.5619762572     -1.0694554978     4.0424675165
C     -0.6679069152     0.3922283662     3.9536661516
C     0.2926440003     -2.5980328095     2.469202877
C     -0.9005234136     -1.800001525     2.8884218437
C     0.4949867998     -2.8327014067     1.0872188322
C     2.6870827374     -1.7078970303     1.3492994896
C     1.8020518268     -2.5465139331     0.5790746945
C     2.5772189438     0.752768847     1.0158553221
C     2.9100251091     -0.5289026557     0.4933720939
C     1.9250040062     1.6884345401     0.1230808295
C     0.3728235928     2.2687744849     2.0408121143
C     0.859039746     2.5386906065     0.6888346867
C     -1.4854703846     0.9270574968     2.9819250364
C     -1.0328232556     2.0466486991     2.1936165931
C     -1.7794667857     -1.2711700221     1.8596525261
C     -2.2118410218     0.0752039685     2.0232413107
C     -0.6242469117     -2.6912662229     0.1574785507
C     -1.7485936928     -1.8030711756     0.5127933864
C     -0.3223134988     -2.8944000567     -1.2029230135
C     1.9692399373     -2.1908620771     -0.8023698325
C     2.5814604659     -0.8735098414     -0.8524340372
C     1.0127931932     -2.5382057871     -1.7097083728
C     1.9055288319     1.4226194136     -1.3155166604
C     2.1347918746     0.0645000626     -1.816650532
C     1.1494217445     2.3090652411     -2.1622657736
C     -0.0630412979     3.1448131861     -0.186094043
C     0.1695748218     3.1795971821     -1.5671738476
C     -1.8997595087     2.1457121763     1.0528113707
C     -2.5708490795     0.8666144094     0.8906840637
C     -1.4984713791     2.8538124619     -0.040926339
C     -2.4273162909     -1.0835481061     -0.5652709111
C     -2.7529439681     0.3371918163     -0.411484372
C     -1.2164883321     -2.4992859285     -2.2064370435
C     -2.2795105736     -1.5747040052     -1.9111495311
C     0.8506511771     -1.7815424115     -2.9327021786
C     1.4077343219     -0.4470186167     -3.0068545405
C     -0.4903080699     -2.0356603963     -3.3705936647
C     0.6166415189     1.8541734048     -3.3932152242
C     0.6736607338     0.5045766352     -3.8094449358
C     -1.079861483     3.0559985545     -2.2891007411
C     -2.0386833974     2.5535580797     -1.3495748433
C     -2.6758809285     1.271094675     -1.5641928725
C     -0.8009817674     2.3483015084     -3.4725804654
C     -2.39525249     -0.6983845201     -3.0178055889
C     -1.2585617556     -1.0099544977     -3.9510668444
C     -0.6712922562     0.18189075     -4.2779716751
C     -2.530840547     0.702269556     -2.8847799694
C     -1.5777175329     1.2795774741     -3.8286094225


