56

 C     0.9183670791     -0.1511663298     4.1534530509
C     2.1533471575     -0.469290652     3.652388743
C     2.072611588     -1.822368285     3.0318024048
C     0.0014719968     -1.2934456413     3.8511365611
C     0.696232365     -2.2392319785     3.0052773597
C     -1.1930740655     -0.7621174428     3.4514210078
C     0.2384885952     1.0830247708     3.7840326786
C     -1.1100312018     0.7175225452     3.4591882951
C     0.882043184     1.9746113041     2.903693839
C     2.8459352029     0.4173413484     2.7150339157
C     2.2128574611     1.619884717     2.3360729292
C     2.8290305872     -1.7747618818     1.8702768585
C     3.3382863639     -0.3979040267     1.6613456046
C     2.3213140155     -2.2514524409     0.6528241503
C     0.1047350042     -2.6489398546     1.7666650728
C     1.0102577166     -2.8220321804     0.6264137483
C     -1.8398964787     -1.1718815041     2.2441866479
C     -1.2592080057     -2.1769536302     1.419165269
C     -1.7725410383     1.1829427024     2.3276455239
C     -2.3560569138     0.0212476187     1.6218330765
C     0.1272097703     2.614335045     1.8660867708
C     -1.2130669943     2.235041684     1.5320170658
C     2.2325850429     2.0352797949     0.9633541774
C     1.0416505062     2.8413409013     0.7581545628
C     3.1794884396     -0.084296283     0.3003176373
C     2.6879228419     -1.2692073367     -0.3910051066
C     2.6560489363     1.1777367554     -0.111039426
C     2.0031202627     -1.1942010752     -1.5961978198
C     0.460338063     -2.9464679677     -0.6557292313
C     1.1015745269     -2.3107419145     -1.8346322493
C     -1.7587071301     -2.2463145661     0.0573455303
C     -0.9370131167     -2.9428704533     -0.8947938481
C     -2.6992346391     0.0720910045     0.2716928482
C     -2.6310049836     -1.1879791601     -0.4711382324
C     -1.7048823039     2.3968053348     0.1732835343
C     -2.597479809     1.3849960294     -0.4154915361
C     0.5770517324     3.076906228     -0.487519248
C     -0.8619464329     3.1082079298     -0.7426306701
C     2.0228679812     1.2849515525     -1.4369913424
C     1.7224266811     0.1054759237     -2.2395864067
C     1.2108101032     2.4447943905     -1.661447455
C     0.7123943319     0.1567000105     -3.3232872306
C     0.1953582464     -2.2635133302     -2.862060459
C     -1.0999003559     -2.7319951026     -2.3054271603
C     -0.0314668086     -1.0676490026     -3.6321033062
C     -2.8587898667     -1.1044700267     -1.8875605229
C     -2.0647460612     -1.9141414552     -2.7908634983
C     -1.4475618361     -0.9995502294     -3.8108764462
C     -2.8279162482     1.4025135136     -1.8245241702
C     -2.9819400909     0.1596337486     -2.5037352387
C     -2.1292593563     0.2050783551     -3.7359134539
C     -1.0063407433     2.9860246141     -2.1349245166
C     0.2824530608     2.4916094032     -2.6910354945
C     0.0052932349     1.3960412879     -3.5578127883
C     -2.018229998     2.2408867296     -2.6990079757
C     -1.4432776     1.4119185085     -3.7587740302


