56

 C     1.4977327176     -0.2357995673     4.1334868591
C     0.7379499971     -1.3830587513     4.1528854991
C     1.2229018944     -2.3125186657     3.1229857276
C     2.4775189994     -0.3462496002     3.0787995035
C     2.2133170753     -1.620434518     2.3706409226
C     2.4084991488     0.8152181952     2.3214777876
C     0.6459509081     0.9321135868     3.8415581127
C     1.3008980213     1.6778920966     2.8526253743
C     -0.611686384     -1.0073781249     3.7931135221
C     -0.6707491866     0.4672419563     3.5477691774
C     0.0756403533     -2.734151402     2.3916510461
C     -1.060909866     -1.8719270114     2.8030243156
C     0.1831669445     -3.1205340895     1.0574153835
C     2.2193810678     -1.6739298296     0.9218424053
C     1.3671982914     -2.6775751432     0.2974303419
C     2.6518013057     0.7895273067     0.9033773785
C     2.5781039074     -0.4844794982     0.1566809536
C     2.3618370501     1.9764734212     0.2482942986
C     0.5611824568     2.42395246     1.9304663418
C     1.3502096516     2.8903233159     0.8235418198
C     -1.3773159712     0.9620167811     2.4125503483
C     -0.842010015     2.1379704224     1.7069184053
C     -2.0033732951     -1.4238638392     1.8145068574
C     -2.2229133735     0.0248272774     1.6492201384
C     -1.0724612575     -3.2054048143     0.3632785701
C     -2.1669906065     -2.2851584324     0.725731624
C     -1.1061952924     -3.3947939961     -1.0175580619
C     1.2640175958     -2.6737470808     -1.111764167
C     0.074676911     -3.1981432693     -1.771009049
C     2.308770513     -0.4092767447     -1.2686994099
C     1.7225355412     -1.5536325435     -1.8757969599
C     2.2908163879     2.0957648477     -1.1975563127
C     2.172082728     0.8997019945     -1.9733128463
C     0.7622789865     3.55033542     -0.2165545738
C     1.4760715302     3.2339204864     -1.4715059935
C     -1.4261200563     2.5750554683     0.4401205731
C     -0.6636957484     3.4359891874     -0.4516171505
C     -2.7302468387     0.4406424008     0.4084942648
C     -2.3828023499     1.724015841     -0.177764089
C     -2.759877094     -1.8420753453     -0.5209657971
C     -2.1663764998     -2.5694461719     -1.5997972808
C     -3.0273028295     -0.4841419564     -0.6722942978
C     -0.2506872173     -2.3682495926     -2.8719588322
C     0.7847201527     -1.4060979758     -3.0082372594
C     -1.6358372734     -1.8937674909     -2.7141135251
C     1.3091504138     0.9886486053     -3.1349933717
C     0.4851586517     -0.1529782281     -3.4911830547
C     0.5321100774     3.2157793468     -2.4837922939
C     -0.8177668461     3.3452283453     -1.8572948549
C     0.5019227321     2.1396688296     -3.3744199997
C     -2.4523471373     1.5718457774     -1.6113373215
C     -2.7001127831     0.1763660663     -1.9181899102
C     -1.9333365963     -0.4978327126     -2.9267742599
C     -0.9164729938     0.2911674294     -3.5966544614
C     -1.6486455701     2.3627971924     -2.4637068097
C     -0.8913689504     1.6821622968     -3.4910356485


