56

 C     1.4745807485     0.1241903219     4.2082400339
C     0.7070579783     -1.0784358201     4.0097141597
C     1.4715260633     -1.9066589503     3.1862092287
C     2.577906823     0.1450225888     3.2201110419
C     2.6372744744     -1.1145354892     2.6567250643
C     2.3904796916     1.2842132009     2.3650324433
C     0.6777710714     1.2365468503     3.9924680243
C     1.3197946858     2.0816353538     2.991047687
C     -0.6429636075     -0.6763353373     3.5762914878
C     -0.694309685     0.7819264681     3.7332119248
C     -1.2479716292     -1.2710621718     2.4481866178
C     0.8919330718     -2.5610271472     2.1045601958
C     -0.5240932147     -2.3980816406     1.8267042276
C     2.6648835144     -1.2951538804     1.2536649064
C     1.7827113036     -2.4130755877     0.9618103631
C     2.4257310835     1.148057589     0.9344833524
C     2.6237336475     -0.1861662061     0.3478862354
C     1.6968952253     2.1427722425     0.125760785
C     0.5171968864     2.8719236747     2.208224895
C     0.804244441     3.0274030817     0.799077019
C     -1.4799533328     1.5295141505     2.8918819387
C     -0.935878609     2.7563368357     2.3397753487
C     -2.1298115711     -0.4577357779     1.5369420391
C     -2.2593947307     0.9085525633     1.8241642577
C     -2.4323071533     -0.8921413575     0.1587293019
C     -0.9235747251     -2.8383049124     0.5802079912
C     -2.0344581527     -2.2212497564     -0.1822993974
C     1.3626178703     -2.6966324061     -0.3181437773
C     0.0407052804     -3.2790613548     -0.4033921289
C     2.2460191911     -0.4707520145     -1.0436186256
C     1.8213408204     -1.8284282855     -1.4105206354
C     1.5077280196     1.9183829439     -1.3116440391
C     1.9011046093     0.6399159651     -1.9276428517
C     0.4463680229     2.6460654519     -1.9501983155
C     -0.4688893264     3.3499406306     0.1742279786
C     -1.5177946508     2.985202212     1.0977551144
C     -2.3693238034     1.8608149137     0.7353780933
C     -0.6583622317     3.0949596863     -1.1380981786
C     -2.6293087353     0.0511341467     -0.9459789512
C     -2.4971785513     1.4701524864     -0.6112509611
C     -1.8649466277     2.3520528782     -1.5886448972
C     -2.4349769719     -0.3773622874     -2.3611348589
C     -1.9196659099     -2.6259730273     -1.5062996381
C     -0.6104681159     -3.3254273212     -1.6402654571
C     -2.0791392645     -1.7501386218     -2.6135326055
C     1.241886094     -2.0762042607     -2.6908439335
C     -0.0001266811     -2.8697308763     -2.7822256767
C     -0.9807328196     -2.0765887884     -3.5225476625
C     1.4011373464     0.3210926104     -3.2514422275
C     1.1080263665     -1.0185089602     -3.6010187465
C     -0.2857305547     -1.0606203885     -4.1625326142
C     -0.1558461954     2.1822394531     -3.1462621664
C     -1.6027227693     1.9106376715     -2.8604101252
C     -1.9041147603     0.5903147761     -3.3136210989
C     0.3381859264     1.1275627091     -3.8414250596
C     -0.7947958567     0.2268291913     -4.1634771272


