56

 C     1.2979282023     0.2570708878     3.8267049279
C     2.4696302666     0.0714034608     3.0746467832
C     2.4794193887     -1.3117649969     2.6207634893
C     0.455248217     -0.9599737789     3.6475710828
C     1.1825040711     -1.8877018145     2.8611406088
C     -0.846759231     -0.553168378     3.2749049938
C     0.5048621645     1.3626445346     3.5879393745
C     -0.8877588902     0.8846800171     3.3635498289
C     0.8102109195     2.2723461428     2.5421786975
C     2.7505670356     0.8986752797     1.94284121
C     1.9150023277     2.0231715438     1.6408956804
C     3.0219170985     -1.3551914012     1.330557135
C     3.1864613992     0.0115749279     0.8524747284
C     2.5507320296     -2.3564758839     0.4546927452
C     0.4938223317     -2.6214821026     1.8143747077
C     1.2910551723     -3.0320483761     0.7056873638
C     -1.5658301089     -1.2041883249     2.2143942018
C     -0.9363726172     -2.3625813228     1.5917447821
C     -2.5272036295     -0.3900711214     1.4489365059
C     -1.4870854488     1.652972327     2.3862297283
C     -0.4819458823     2.645579191     1.9717457129
C     -2.3809549778     1.0668238906     1.4123558717
C     -0.5484371496     3.192537919     0.7388965535
C     1.7731772009     2.4398993546     0.2271126533
C     0.6522385396     3.2668700094     -0.0918174994
C     2.9573850157     0.3235771797     -0.5058726782
C     2.3297168359     1.6072513113     -0.8516304253
C     2.6456805797     -2.1034020959     -0.9302659243
C     2.7962827251     -0.7967519873     -1.419996412
C     0.6943179813     -3.3113080711     -0.6051470435
C     1.5246600379     -2.7460662096     -1.6176817978
C     -1.512064243     -2.8400778538     0.3619559644
C     -0.6672658088     -3.2286842818     -0.7823491099
C     -3.1530139571     -1.0049841053     0.3259820199
C     -2.6699460104     -2.2670936895     -0.1472225657
C     -3.4949566983     -0.2386838192     -0.8271352952
C     -2.583124838     1.7992971231     0.1764250226
C     -1.708345495     2.9178635233     -0.1276771927
C     -3.1123998067     1.0933383655     -0.9655953976
C     0.1635373541     3.37519108     -1.4164001145
C     -1.2963625933     3.1701346836     -1.4367486106
C     1.7539630055     1.7080634326     -2.1608038898
C     0.7212480054     2.6267946258     -2.4389102402
C     1.8860923865     -0.7092442166     -2.564854808
C     1.0202565703     -1.8976028623     -2.60748784
C     1.3951214885     0.5025647934     -2.9227138159
C     -1.22030388     -2.6132750149     -1.9815547255
C     -2.5337800492     -2.1829413766     -1.6182438048
C     -3.0295605461     -0.9730032713     -2.0279025791
C     -0.4076036138     -1.775582362     -2.8212600404
C     -2.5110399333     1.2513522706     -2.3091069371
C     -1.6052718914     2.2764772427     -2.5302027864
C     -0.3680478419     1.9479573529     -3.1798552382
C     0.0066029362     0.625940555     -3.4179147076
C     -2.2583095085     -0.0804522339     -2.837088662
C     -0.9358966563     -0.4682520633     -3.2532622518


