56

 C     1.5031662044     0.0275886174     4.1852668591
C     0.7205915984     -1.196336474     4.1112207621
C     1.4499636405     -2.1463015281     3.3754433794
C     2.6155979318     -0.1021597905     3.2656870591
C     2.6098423191     -1.4139214557     2.7820272986
C     2.5297810889     0.9500146045     2.2766634941
C     0.7011697758     1.0679587825     3.6966233272
C     1.3801076536     1.7601668956     2.6267145342
C     -0.6219779213     -0.865107665     3.6827478217
C     -0.6406920321     0.589413147     3.4160972468
C     -1.2568568897     -1.6939903446     2.7562989375
C     0.8466200439     -2.8910922699     2.3345160686
C     -0.5477599383     -2.7837775598     2.1109614075
C     2.6786098138     -1.7212862901     1.3917743176
C     1.7093142975     -2.7757501544     1.1528899948
C     2.785502804     0.6927600694     0.8920852605
C     2.8431768689     -0.6864543898     0.4018662445
C     2.2892205655     1.6806852555     -0.0047533174
C     0.6282041412     2.4353178516     1.650800042
C     1.2678328232     2.6150928966     0.3995474468
C     -1.4107530563     1.1596983952     2.3848922514
C     -0.8358360892     2.2879790937     1.6236235037
C     -2.1760206422     -1.1245239766     1.7817878723
C     -2.3556721104     0.2823042804     1.6739506878
C     -1.0813659619     -2.8895379062     0.7711689002
C     -2.1642208031     -1.9220338014     0.594758968
C     1.1893702613     -2.9396897196     -0.1101826194
C     -0.2427808308     -3.1045251893     -0.3133434349
C     2.4233979414     -0.9553665517     -0.9735477076
C     1.6790761687     -2.1460679882     -1.2059352467
C     2.1551018574     1.4718402499     -1.4171205389
C     2.2266034038     0.1449961191     -1.9454704756
C     0.5704270975     3.0560601055     -0.7784954389
C     1.2129502223     2.4508153936     -1.9424732832
C     -1.50341333     2.7508142915     0.471900949
C     -0.8019061929     3.2097735176     -0.7361255365
C     -2.9440370411     0.7316847001     0.4706827881
C     -2.64210567     2.0469232397     -0.0099806242
C     -2.5143459184     -1.4005891012     -0.689221069
C     -3.0722160639     -0.0992416982     -0.6950929909
C     -0.5702093188     -2.5895254131     -1.6266477112
C     0.6758917759     -2.1913879433     -2.2484334
C     -1.7568246184     -1.8399586715     -1.8834175351
C     1.5090791644     -0.0798087245     -3.1644369053
C     0.6803066086     -1.2866080103     -3.2885864681
C     0.4941407954     2.2048295102     -3.0973298386
C     0.7865221275     0.9847696539     -3.8097142614
C     -1.5972622225     2.8364833067     -1.9230132486
C     -2.7325448876     2.108016676     -1.4291052171
C     -2.9982122576     0.7735349079     -1.8888725074
C     -0.9768244723     2.4035162245     -3.0962286885
C     -1.7519996811     -1.0172858179     -3.0579789618
C     -0.5807294583     -0.9050128486     -3.8469565604
C     -0.4557735347     0.4707782888     -4.2715482859
C     -2.3993684097     0.3311554324     -3.057192671
C     -1.529859642     1.2423697868     -3.7707928789


