56

 C     1.5976188167     -0.273551835     4.2540698233
C     0.7443801958     -1.4500406036     4.2506007553
C     1.1274470318     -2.2284420208     3.1141155035
C     2.4596844373     -0.3914789822     3.1195340432
C     2.2361382435     -1.6288806235     2.4206659471
C     2.5088031386     0.8264863261     2.310270452
C     0.7839480004     0.8217520797     3.8268721208
C     1.4100228489     1.6220024696     2.7740735577
C     -0.5482888668     -1.0152109267     3.8214547845
C     -0.5760561453     0.4071444133     3.607711533
C     -0.0127301646     -2.6503389965     2.3000176687
C     -1.1115106924     -1.8548226767     2.7638196769
C     0.1584096739     -2.9112635359     0.9338726235
C     2.3663198746     -1.719117447     1.0047525841
C     1.4429656614     -2.6013688258     0.2833768073
C     2.8138103814     0.7501440988     0.9446706191
C     2.9201091099     -0.5646054241     0.2893834922
C     2.3331495993     1.8491594437     0.1527896653
C     0.614539941     2.3424115784     1.8729960704
C     1.2406894928     2.640098407     0.6139238481
C     -1.3777414079     0.9915738815     2.5851442576
C     -0.8473190683     2.1630031381     1.8796382025
C     -2.0408603206     -1.3189959374     1.8621989589
C     -2.3244623692     0.1262395379     1.8736321795
C     -1.0333231099     -2.7927093069     0.1391012077
C     -2.1257833879     -2.001770674     0.6002357253
C     -0.9901380916     -2.71346219     -1.3045227267
C     1.4606879098     -2.5706651648     -1.1271539176
C     0.2348962021     -2.6650037768     -1.9458327556
C     2.9003843636     -0.5855361575     -1.1212989561
C     2.3247699178     -1.6806972434     -1.8050941475
C     2.2752854227     1.7890732985     -1.2912448296
C     2.6115685537     0.612075527     -1.9361680266
C     0.4835856023     3.0862591163     -0.5349579925
C     1.1420860683     2.5932162456     -1.7421997929
C     -1.5612480083     2.6446722679     0.7619824988
C     -0.8961779996     3.1516737412     -0.455527861
C     -3.0009439191     0.6595429058     0.75612939
C     -2.7312327035     1.9798332666     0.3290757069
C     -2.781837561     -1.4162766562     -0.5482345161
C     -2.1052488265     -1.8843773281     -1.7554032939
C     -3.2728498631     -0.1254061494     -0.4651904035
C     -1.9750515946     -1.059685369     -2.86146863
C     0.393657472     -1.8100399833     -3.1180254505
C     1.6765712149     -1.207027802     -3.0152380751
C     1.8515096868     0.2001221166     -3.1120967128
C     -0.6916032793     -1.0192795142     -3.5746720373
C     0.4017421402     2.2175613273     -2.8518046345
C     0.7640266175     0.9878185602     -3.5687530681
C     -0.4515233235     0.3390083038     -3.9152103026
C     -1.6968403475     2.7691164609     -1.6143175763
C     -2.8151226372     2.0449439137     -1.1192667212
C     -3.1546919865     0.7589539592     -1.6202441846
C     -2.5187796166     0.3035905437     -2.8034094203
C     -1.0631498492     2.3106889088     -2.7974911971
C     -1.5742924689     1.1518893232     -3.4412825332


