56

 C     1.3826319981     -0.2999660786     4.5678522746
C     0.5230756513     -1.3200929769     4.314745683
C     1.0517362454     -2.1403661503     3.1968633507
C     2.509864771     -0.4275911145     3.5932080541
C     2.2379743845     -1.5295150983     2.6633712529
C     2.6964506994     0.8167304121     3.0513840404
C     0.681236049     0.9690614495     4.2764484487
C     1.5402352096     1.710579005     3.4866691364
C     -0.7630122016     -0.7839323969     3.855456943
C     -0.6271866161     0.6524111428     3.6965082384
C     -0.0072987567     -2.4288218301     2.3424289451
C     -1.1350290971     -1.5244813192     2.7343401052
C     0.2193046074     -2.5883814137     0.9710061602
C     2.3315333685     -1.3375435188     1.2314276573
C     1.4208561402     -2.0730277707     0.3728483231
C     2.8709983113     1.0146073473     1.6551376889
C     2.7818266395     -0.0474045734     0.6933797796
C     1.1133603279     2.414050396     2.3518878108
C     2.1693145847     2.2525591562     1.360289395
C     -1.0710997329     1.273201609     2.4687189453
C     -0.2365606946     2.3011614128     1.8411957309
C     -1.8782447902     -0.938745735     1.684855978
C     -1.8980285399     0.4922874163     1.5406682117
C     -0.9901735865     -2.688407254     0.1811558351
C     -2.0721209586     -1.7992938545     0.5451852048
C     -0.8282662413     -3.0580632534     -1.1543583942
C     1.3739726637     -1.8496724308     -1.0749566706
C     0.4291568323     -2.5984130633     -1.8117378407
C     2.5126839637     0.3196882553     -0.7067514932
C     1.908613306     -0.594663531     -1.6403786826
C     1.9566340353     2.6130248233     0.0905853095
C     2.404509832     1.7472862044     -1.0059927905
C     -0.47040966     2.7302116057     0.4654297439
C     0.6803535968     3.1834947509     -0.2866999161
C     -2.2793441621     1.012636113     0.2298957227
C     -1.5934985038     2.1927232496     -0.3090089216
C     -2.9099119761     -1.3201431779     -0.490174688
C     -2.9407489516     0.1303357322     -0.6715721335
C     -1.8993113239     -2.9016508728     -2.0734786164
C     -2.9304179084     -1.9770937094     -1.7414499177
C     0.0305231662     -2.203106512     -3.1272807162
C     -1.3412794738     -2.4924434406     -3.3436357023
C     1.3203414319     -0.093258602     -2.9082805449
C     0.3362173629     -0.8710045593     -3.5854559526
C     1.7561088382     2.2106874433     -2.1331597498
C     0.7007726663     3.1785006928     -1.6929381505
C     1.1961308705     1.3334969038     -3.1064087624
C     -1.6057891632     2.36475637     -1.7376593837
C     -0.4250259618     2.8356965012     -2.3968649131
C     -0.0791530049     1.8738004329     -3.461589537
C     -2.9479278406     0.3378478828     -2.1156955809
C     -2.940349631     -0.9446014519     -2.7824253502
C     -1.9680530792     -1.2638781787     -3.7555451691
C     -0.9385512089     -0.2888027905     -4.0266025279
C     -2.1778460495     1.3701561879     -2.6264302378
C     -1.1817784689     1.0533741528     -3.6964116257


