56

 C     1.3797429946     -0.0612873099     3.5071289379
C     2.5061853953     -0.3911615208     2.7414368521
C     2.4207531055     -1.7598519802     2.3460080066
C     0.5302365335     -1.2630168697     3.5769398453
C     1.1154665277     -2.2637367348     2.7601261773
C     -0.8129882612     -0.8585432673     3.4116720226
C     0.5801356823     1.0560300124     3.1880803789
C     -0.8146218703     0.6172540509     3.3114179586
C     0.9676197815     2.00431594     2.1644966385
C     2.8502504215     0.4312038127     1.6108578647
C     2.1781997961     1.679357743     1.3980900949
C     2.7930141179     -1.8030826784     0.9746479435
C     3.1189968516     -0.439418905     0.5066033717
C     2.1256151685     -2.653946796     0.1107899941
C     0.2930910113     -2.9770485846     1.8071865866
C     0.9143354224     -3.3396427435     0.5476765109
C     -1.6581794924     -1.5978314399     2.5687373455
C     -1.1020829904     -2.6534954403     1.7566507884
C     -2.6489249157     -0.8942655915     1.7696123954
C     -1.7996019388     1.2637271111     2.6195216643
C     -2.823165091     0.4788899096     1.9081578877
C     -0.0986442863     2.7670283446     1.5178253264
C     -1.4670832315     2.427827881     1.8008855874
C     0.1469721677     3.3643167187     0.2226431126
C     2.309615805     2.1879305777     0.0769020055
C     1.3739132654     3.1324991715     -0.4085703161
C     2.9111269876     -0.034263502     -0.8488658056
C     2.6801286412     1.343822     -1.0438763352
C     2.0010466641     -2.3179884204     -1.3207556957
C     2.3567597384     -1.0126432034     -1.8228791668
C     0.133316758     -3.5025258655     -0.613585931
C     0.839242944     -2.9594984993     -1.7695029366
C     -1.8225443691     -2.6209816164     0.478147859
C     -2.7128527521     -1.4988009888     0.4498810868
C     -1.2056312546     -3.0507466269     -0.7003927678
C     -2.8918545347     -0.7123843979     -0.7442797112
C     -3.172188973     1.2188369772     0.7525246004
C     -2.40334373     2.4420014935     0.7423173698
C     -3.1851494737     0.6759377358     -0.5538898997
C     -0.8601705158     3.3526400538     -0.8620448523
C     -2.0978599995     2.7939607192     -0.6045079894
C     -2.6331109629     1.7111600794     -1.4529691168
C     1.1893226337     2.9521977844     -1.8517959711
C     1.9640965394     1.8378366661     -2.2357743027
C     -0.1968486627     3.0513378447     -2.1334647187
C     1.6080416091     -0.5282712112     -2.9298306706
C     1.4202778056     0.9174726343     -3.1493647602
C     -0.0857618389     -2.3044390707     -2.6195469932
C     -1.3716541787     -2.277467772     -1.9412229896
C     -2.1784943458     -1.1093643133     -1.9718393423
C     0.3696892711     -1.1805485227     -3.3167625772
C     -1.978711504     1.3623463068     -2.6012018198
C     -0.7684747341     2.0985809654     -3.0081738501
C     0.0899742833     1.1344704085     -3.5952182233
C     -1.7955152961     -0.0728084145     -2.9173058237
C     -0.58170874     -0.1639206254     -3.6093436765


