56

 C     1.1993393193     -0.099814323     4.522990812
C     0.5083925234     -1.1847712274     3.9484200581
C     1.4035975831     -1.9909683204     3.1666336229
C     2.5030961763     -0.0587874167     3.8432393364
C     2.6217199159     -1.1836566145     2.9908314407
C     2.6497922864     1.2039624294     3.2322347306
C     0.4965165464     1.0914748517     4.0948788389
C     1.4090463112     1.9634121868     3.478622675
C     -0.7099933314     -0.7061836991     3.2838005675
C     -0.6952510959     0.7429258935     3.3308993793
C     -1.2018339183     -1.3480606041     2.1483371961
C     0.9892511776     -2.4490909848     1.9245413249
C     -0.3729239702     -2.3651614749     1.5121972322
C     2.8383260868     -1.0437421639     1.5833315537
C     1.9411517218     -1.9547766841     0.9146582987
C     2.9610115747     1.3717466126     1.8503710989
C     3.0204387936     0.2413023919     0.9521100751
C     1.0671646559     2.6965935294     2.3217762181
C     2.1778279629     2.5118617664     1.3961090555
C     -1.1176116977     1.5080487472     2.1902507448
C     -0.2589885904     2.6153288963     1.7718689281
C     -2.0690399902     -0.5865262538     1.249852088
C     -1.9428177762     0.8484962041     1.1755981368
C     -2.592617391     -1.2958266377     0.158100484
C     -0.6522569377     -2.7501643462     0.1759537336
C     -1.9959480434     -2.5740082409     -0.2668269866
C     1.5759181248     -1.8739928058     -0.437835845
C     0.4002640021     -2.6515208484     -0.8284025172
C     2.5882258833     0.3934367878     -0.4629651459
C     1.9676398407     -0.7246391446     -1.2164729802
C     2.0043267206     2.7405227825     0.0566877196
C     2.2806960607     1.6888051778     -0.9227413923
C     -0.3954143283     3.0777708867     0.4302464365
C     0.7599838062     3.2974878577     -0.3397729555
C     -2.2167481115     1.4601177479     -0.1487414651
C     -1.4259318739     2.576196663     -0.4847862742
C     -3.1862552226     -0.6923144182     -1.010401263
C     -2.8347153519     0.6853982907     -1.2579379899
C     -2.3645114808     -2.8036869416     -1.5843104306
C     -3.1956270175     -1.6799581435     -2.045786714
C     0.035997271     -2.6568444329     -2.1739401584
C     -1.3406655811     -2.9680085242     -2.5779270845
C     1.3133872416     -0.5311925653     -2.5126308028
C     0.5223494768     -1.6056513958     -3.0461845459
C     1.3918449464     1.8941051082     -2.0710556246
C     0.4825068738     2.902147115     -1.7062195196
C     -0.9147685509     2.6960276088     -1.8508478175
C     0.9492005007     0.8286079059     -2.9084307359
C     -2.4885220623     0.9858264075     -2.6284126071
C     -1.3100957994     1.8178491425     -2.8249921442
C     -0.3192003788     1.035512059     -3.5534385784
C     -2.7910415003     -1.3779692608     -3.3690844718
C     -1.6709925442     -2.253586453     -3.7463265752
C     -0.5524679491     -1.3706574082     -4.0027443578
C     -2.4166651509     -0.0407334961     -3.6161218102
C     -1.0261077582     -0.0526702404     -4.1092029929


