56

 C     1.4856428938     -0.1633592121     3.843128593
C     0.7151814334     -1.293616717     3.63500744
C     1.2711887576     -1.9722455216     2.4556118354
C     2.5921763292     -0.1246547659     2.9437886444
C     2.4719993515     -1.2339326544     2.0443259787
C     2.6642873722     1.1876391416     2.3980167585
C     0.6657430284     1.0292383331     3.573131893
C     1.3579105143     1.8497145779     2.6525572324
C     -0.6631997562     -0.8458361858     3.5538252845
C     -0.6597733346     0.6215056937     3.3343896607
C     -1.5253094778     -1.6098626432     2.85233099
C     0.4063231254     -2.5437808307     1.5076420288
C     -0.9881785866     -2.6501694991     1.9310473888
C     0.6869609129     -2.4485213655     0.0618838092
C     2.7704371105     -1.0721516944     0.6665712984
C     1.9180471451     -1.7595435781     -0.3419734759
C     3.247558336     1.3218936434     1.1601791999
C     3.4156676922     0.1659442813     0.2980777905
C     2.8118079038     2.4032093649     0.3259428284
C     0.6504623284     2.4236200277     1.5451953418
C     1.4721417792     2.82833576     0.4257715689
C     -1.4188806789     1.1533907929     2.2328692038
C     -0.7527401779     2.076455605     1.3141978079
C     -2.6757304614     -1.0179834481     2.2093673637
C     -2.5883191256     0.3675081604     1.8010029694
C     -1.9761897168     -2.904260638     1.0204107679
C     -3.1341953889     -2.0041115451     1.2944138275
C     -0.4071464811     -2.5940906924     -0.8943853409
C     -1.7386622299     -2.8904839136     -0.3999060208
C     -0.3309970355     -1.9525442388     -2.2094367982
C     2.0363072212     -1.3618637042     -1.6893589635
C     0.9488897551     -1.4937337604     -2.6260250064
C     3.3696357426     0.6519916495     -1.0581164477
C     3.0464219321     2.0425774525     -1.0453534906
C     2.8194095639     -0.1635041452     -2.0749533349
C     0.9372159482     2.9311981015     -0.9403368328
C     1.9922014917     2.5344714775     -1.8680123187
C     -1.2984003849     2.2433098562     -0.0476928892
C     -0.4141255138     2.6334196324     -1.1844082084
C     -3.1969296959     0.7016552884     0.5519099399
C     -2.5153167003     1.6044306469     -0.3560369291
C     -3.7050432149     -1.6736011831     0.0891839682
C     -2.8785204384     -2.2933897461     -0.9957146307
C     -3.8555148439     -0.3142058209     -0.2391689902
C     -1.5150200167     -1.2576481938     -2.7529478158
C     -2.7587654998     1.0834147918     -1.717862936
C     -2.7498909058     -1.359521379     -2.0424672129
C     -3.4232780726     -0.1550030264     -1.6010832057
C     -0.7087024889     2.1401362987     -2.5291322506
C     -1.3010126035     0.0104158572     -3.387917098
C     -1.8025580692     1.1941672552     -2.697039079
C     1.0762263673     -0.4177285736     -3.5742923834
C     2.1863485892     0.4474483758     -3.1597376952
C     1.6769022794     1.8033227427     -3.0278627565
C     -0.0238223564     0.3693832816     -3.8533659934
C     0.3131283613     1.7515505967     -3.4071932592


