56

 C     1.2167776739     -0.0186669121     4.0016306382
C     2.3212280906     -0.2915786223     3.2216976528
C     2.2351947159     -1.6577025374     2.705610338
C     0.3498807921     -1.226044814     3.9202776573
C     0.9455305526     -2.183106974     3.0086878459
C     -0.9265583458     -0.7977802779     3.683996697
C     0.3988732397     1.1439531929     3.7198014265
C     -0.9563165085     0.6878903689     3.6464876346
C     0.8184310225     2.0556744782     2.7288019696
C     2.7234885504     0.5690176848     2.1215085957
C     2.0261026496     1.7658136601     1.9317805321
C     2.7243592031     -1.6430170778     1.3763236922
C     3.0067104379     -0.2498676401     0.967718686
C     2.1616361699     -2.5285119469     0.4799682665
C     0.1568740543     -2.7789419688     1.9529141521
C     0.8992843089     -3.1662682209     0.800262041
C     -1.7270438378     -1.299343821     2.5923813074
C     -1.2278878816     -2.3028659743     1.7080097374
C     -1.818816654     1.0759079324     2.6241376343
C     -2.4250387466     -0.1537221203     2.0686508165
C     -0.1381120771     2.6317302186     1.8267899439
C     -1.4762328732     2.1446863731     1.7161970648
C     1.8375347678     2.2574786327     0.6026176424
C     0.575517916     2.9772013818     0.6017058407
C     2.7498445458     0.1801446266     -0.3590189745
C     2.2247353047     1.5348585253     -0.5633245607
C     2.1644446942     -2.2061152294     -0.9415742706
C     2.463584884     -0.8517355233     -1.3793102099
C     0.2607597801     -3.3861741323     -0.4540000955
C     1.133463947     -2.9493621062     -1.542833765
C     -1.7755127652     -2.3068915521     0.3323378254
C     -1.0253517181     -2.9245405595     -0.730672972
C     -2.8895213272     -0.1450039721     0.7793215289
C     -2.6417076965     -1.2608826281     -0.0811537152
C     -2.1365872179     2.1924386769     0.4053410324
C     -2.9083003162     1.0754642489     -0.015638142
C     -0.0798107617     3.2286168054     -0.5607198935
C     -1.520992937     2.9749682047     -0.6512516514
C     1.6094729639     1.9171053926     -1.8473373349
C     0.5405379947     2.8971951838     -1.8412927023
C     1.8894403402     -0.4563021649     -2.5995915568
C     1.58515677     0.9439181402     -2.9015451417
C     0.3495767575     -2.4062904143     -2.5735820555
C     -1.019893599     -2.369137356     -2.1068450808
C     0.8685429909     -1.2884493445     -3.2658219361
C     -2.6881372823     -0.7485557929     -1.4522299288
C     -2.9472851027     0.6625470664     -1.3924994364
C     -1.867522766     -1.298867249     -2.4922010512
C     -1.7852147304     2.7291396155     -1.9961797376
C     -0.52910409     2.8153482804     -2.7674273824
C     -2.4704334294     1.5295962864     -2.4255810821
C     0.5155234864     0.9368132018     -3.8507054721
C     -0.0162420533     -0.4318095497     -3.9169264707
C     -1.4032543655     -0.3920872346     -3.5485470024
C     -0.5621154898     1.8087919783     -3.7358429322
C     -1.7895140315     0.98332353     -3.531303675


