56

 C     1.5059291583     -0.0955729488     3.8818081394
C     0.7085376738     -1.2397942324     3.7792875026
C     1.2965183763     -2.1441912418     2.8002411033
C     2.4880958294     -0.1528105743     2.8551717812
C     2.348157537     -1.3979237082     2.1180961621
C     2.475395011     1.0702801807     2.1309160944
C     0.6676148799     1.0668169717     3.5771222692
C     1.3142055288     1.8405230086     2.5742083824
C     -0.6790030394     -0.8272208078     3.6041573506
C     -0.6610633478     0.6387065204     3.3525179698
C     -1.5143417266     -1.641171908     2.8735963303
C     0.4321570599     -2.925563088     2.0503038662
C     -0.9918095616     -2.8443990002     2.2857918669
C     0.6542156753     -3.1005850222     0.6174249175
C     2.468969778     -1.402345039     0.7028589097
C     1.628520474     -2.3432300343     -0.0794567389
C     2.8698624698     1.098758054     0.7788497054
C     2.9499066947     -0.1732681214     0.0450604774
C     2.4713607286     2.2875883605     0.0823901854
C     0.5433357431     2.5706455016     1.6314062826
C     1.2546773978     2.9578644518     0.4550686203
C     -1.4603108422     1.2197148835     2.3108521829
C     -0.8910372238     2.3259749427     1.5522368574
C     -2.4486755252     -1.0477141275     1.8975325654
C     -2.4681683014     0.3500424906     1.6584406718
C     -1.6337694627     -2.9968758725     1.0353157409
C     -0.657540662     -3.315095285     0.019573986
C     -2.6053102812     -1.9733242041     0.8029362685
C     -0.9215900635     -2.9599785834     -1.2768154662
C     1.3977757534     -2.1094443557     -1.5205525398
C     0.1557002334     -2.5241266575     -2.1235185536
C     2.8707171958     -0.1005644277     -1.3713981319
C     2.0667774889     -1.0271528664     -2.1416272644
C     2.5504567363     2.3361807237     -1.3365903954
C     2.8086377915     1.1697065299     -2.0438069657
C     0.566170782     3.3247134427     -0.7871130537
C     1.3805659514     2.991307794     -1.9049469973
C     -1.5353964738     2.7121093688     0.3223402784
C     -0.8108607421     3.1516361935     -0.8373630902
C     -3.0176808078     0.7491271689     0.394457901
C     -2.6591151541     1.990086176     -0.1516726593
C     -2.8830980465     -1.5450633625     -0.5398701086
C     -2.1649145685     -2.2042356475     -1.6150589416
C     -3.2341979694     -0.1884238158     -0.7172240214
C     -0.454732641     -1.7179133887     -3.1307080104
C     -1.8616253968     -1.4915909097     -2.7658515605
C     1.4257421764     -0.2432669731     -3.2082825347
C     1.8477275654     1.0897091744     -3.1368148053
C     0.8776660503     2.136364902     -2.9372590333
C     0.0818082149     -0.520261198     -3.5752974222
C     -1.4069233916     2.4894420283     -2.0331128342
C     -2.5860330824     1.8733838399     -1.5975338064
C     -2.9105391904     0.5266033655     -1.9450553677
C     -2.1527809091     -0.0997984807     -2.9497679457
C     -0.5517163348     1.8431630279     -3.0137318856
C     -0.9449712195     0.5424567704     -3.4495342351


