56

 C     1.5264720475     0.0362662181     4.0519110287
C     0.7220309844     -1.2057850724     4.0432375298
C     1.5143236169     -2.204980932     3.4491598372
C     2.6566311811     -0.1820800824     3.1486953946
C     2.7043867024     -1.5289063371     2.8228906166
C     2.5910141869     0.7953197002     2.0788637281
C     0.7559093388     1.0311271539     3.4996877027
C     1.4396701276     1.6455114014     2.3628218574
C     -0.579202104     -0.9233618803     3.5162268761
C     -0.6047364766     0.5250997397     3.2677571769
C     -1.1766415957     -1.7668636883     2.5102446212
C     0.9539475365     -3.03045145     2.4780584744
C     -0.3941854325     -2.8800774822     2.0386628489
C     2.775621343     -1.9441067029     1.4490247268
C     1.8063905972     -2.9920506312     1.2804441172
C     2.8077048543     0.4388510887     0.7343695619
C     2.8877456909     -0.9947464324     0.3908299345
C     2.3238048453     1.3763506291     -0.277664854
C     0.6945506477     2.2362945762     1.3566932335
C     1.2621458009     2.318478453     0.0198045123
C     -1.3817903053     1.1090051403     2.296031262
C     -0.7826221093     2.2238353866     1.5071394768
C     -2.1442953254     -1.1551237046     1.5847318334
C     -2.4092609388     0.2865084148     1.6349944967
C     -2.3681532247     -1.7681141879     0.3258824301
C     -0.3797981196     -3.1526183976     0.6016116364
C     1.0146367572     -3.1111034002     0.1341008098
C     -1.3615619816     -2.6628307958     -0.20159758
C     2.3929339237     -1.3890502711     -0.9225637184
C     1.3392822409     -2.3881999945     -1.0383331463
C     2.5412254378     1.0146139806     -1.6318224957
C     2.4982002199     -0.4377469859     -1.9634116031
C     1.9040951783     1.6929336789     -2.6789398101
C     0.4576369085     2.8755060056     -1.0592097878
C     0.7743252498     2.5498592332     -2.4060461102
C     -1.5428642228     2.7984486958     0.5218261803
C     -0.9304145195     3.2020470435     -0.7782683574
C     -3.1631823574     0.8944669048     0.6260104698
C     -2.8692199252     2.2768357949     0.2504668206
C     -2.9030814895     -1.0498012325     -0.8000707419
C     -3.4588193336     0.2027340578     -0.6196107499
C     -1.0824540438     -2.2599398643     -1.5787810501
C     0.273221779     -2.1631065523     -2.0376646316
C     -2.0878376311     -1.3409641646     -1.98710266
C     1.7950784701     -0.5801392834     -3.1777357469
C     1.5376658205     0.7271447969     -3.6947256942
C     0.5196234366     -1.2762022519     -3.105737715
C     -0.3008698152     2.1172891111     -3.3160823985
C     -1.7984711502     -0.3206597131     -2.9624030156
C     0.1597517851     0.8743298008     -3.9068364782
C     -0.5176711215     -0.3652735808     -3.5832203995
C     -1.9133340744     3.0224355616     -1.7559155611
C     -3.0975803235     2.4520367224     -1.1104691198
C     -3.3306101059     1.1706993528     -1.6996989145
C     -1.6136301891     2.2065442063     -2.9054722184
C     -2.4377388028     0.9737122328     -2.7827946366


