56

 C     1.3905840377     -0.2113493685     4.1825012213
C     0.616742849     -1.3150504408     4.3270962071
C     1.1140915336     -2.3793376071     3.4523653289
C     2.404500183     -0.4830774952     3.1409522942
C     2.1679914704     -1.8129916695     2.6141986795
C     2.3529294981     0.5838908403     2.2564211889
C     0.5510175505     0.9076662813     3.7214823059
C     1.2225645184     1.486790391     2.6616177843
C     -0.7599670368     -0.9780698388     3.8881780656
C     -0.7933610884     0.4051654633     3.4587283874
C     -0.0023885664     -2.9068967393     2.8052226155
C     -1.1796052019     -1.9731693582     3.0144015801
C     0.1629835641     -3.4559401993     1.5280793395
C     2.1331209265     -1.9999741231     1.1765007389
C     1.2426748446     -2.9836451663     0.6671094102
C     2.5451957619     0.4311554098     0.8497095536
C     2.4136998325     -0.8762675484     0.2654991753
C     2.3217491392     1.6172777268     0.063778796
C     0.5085125943     2.1397410409     1.6353594303
C     1.3057624735     2.5810153041     0.5201311702
C     -1.442395941     0.7504357393     2.2334873403
C     -0.8844292153     1.8575562445     1.4538540044
C     -2.0259586842     -1.6613820819     1.8927421047
C     -2.1937949714     -0.2643641821     1.4914291542
C     -0.9741780386     -3.5667276866     0.7215715127
C     -2.1076705103     -2.6957104537     0.8953964056
C     0.7507521674     -2.9872288534     -0.7137730087
C     -0.5726272014     -3.5347200226     -0.6794981646
C     2.019743112     -0.9344777474     -1.1507913412
C     1.0538898524     -1.9352251462     -1.6166404123
C     2.4995105449     1.5024430498     -1.3254465768
C     2.1821448854     0.2229100707     -1.9260322906
C     2.0454005746     2.5255907677     -2.2029959127
C     0.6680075358     3.3988858457     -0.4065116664
C     1.2153720672     3.5574994698     -1.7379708272
C     -1.4813845555     2.2822614771     0.2055865245
C     -0.7876253009     3.2814717675     -0.5446519509
C     -2.614576872     0.0546831165     0.1200353089
C     -2.3754223245     1.3477094131     -0.4737663454
C     -2.5443833636     -2.3676383382     -0.4084716542
C     -1.5830499444     -2.9460703236     -1.4150143253
C     -2.8168578558     -1.0672405639     -0.7941475676
C     0.0382210538     -1.4984386588     -2.5937291661
C     -1.3080698138     -1.9701050849     -2.3680779321
C     -2.3262163629     -0.9360577834     -2.1734243573
C     1.3879619481     0.514000638     -3.1361614771
C     1.431037968     1.9076869527     -3.3932006472
C     0.1724020679     -0.2387356119     -3.3070446175
C     0.1327976222     3.7010719525     -2.6705212704
C     -1.0727053476     3.4988107284     -1.9484227082
C     0.2502005664     2.6513176178     -3.6840323553
C     -2.447407988     1.4785106481     -1.9324043927
C     -2.1656223396     0.2738814132     -2.7190234935
C     -1.0195596453     0.5498291195     -3.5865155374
C     -1.8526675432     2.5218843786     -2.6258089639
C     -0.9696370306     1.9487492348     -3.7093566255


