56

 C     1.5454568961     -0.2521221061     4.1849581553
C     0.7069123498     -1.3215989594     4.0392909101
C     1.1564617446     -2.2131859431     2.9677491552
C     2.5636649881     -0.3826034977     3.1323728015
C     2.2812580041     -1.5972685015     2.3421803128
C     2.5610659887     0.7975647139     2.4151251325
C     0.7428493542     0.942584588     3.8846146724
C     1.4050515659     1.638911093     2.8927147008
C     -0.6562437431     -0.8939003334     3.7166404675
C     -0.631178967     0.5224006922     3.5454088601
C     0.0148369799     -2.5459352495     2.1976019224
C     -1.114164475     -1.7242489752     2.6640315078
C     0.1333404205     -2.8057106878     0.8191082008
C     2.3334824225     -1.5665351651     0.9100881722
C     1.3891988259     -2.4234446087     0.1914483653
C     2.8947899239     0.8417862121     1.0198776698
C     2.8276926091     -0.3734028937     0.2255854467
C     2.6574917419     2.0969450639     0.4175016924
C     0.7061017397     2.4347117753     1.9241005626
C     1.5296767632     2.917767939     0.8834410988
C     -1.3099753477     1.0851704049     2.4153267261
C     -0.7083077169     2.2000951753     1.6864295562
C     -2.0272839705     -1.2332101085     1.7117369338
C     -2.2263466289     0.2079463488     1.6851553332
C     -1.1081450055     -2.8403601132     0.0377904396
C     -2.2178484516     -2.0327189615     0.4962473364
C     -0.972296517     -3.0949499014     -1.374461271
C     1.3859364609     -2.3681955034     -1.2259691763
C     0.2914858428     -2.8796179868     -1.9615845865
C     2.5979424664     -0.2141534442     -1.2133613047
C     1.9270014272     -1.2314406437     -1.9200967258
C     2.6821674782     2.2503780784     -1.0052030331
C     2.5073039273     1.0832854422     -1.8026937817
C     0.9653332163     3.4998885389     -0.2959193931
C     1.8004682485     3.2916025605     -1.4405893912
C     -1.2307314869     2.5723522683     0.3683965017
C     -0.3904680621     3.1922814676     -0.6055238999
C     -2.8672479409     0.7272685107     0.5311685247
C     -2.3267756502     1.8644547615     -0.1627141935
C     -3.1459892905     -1.5129381288     -0.4764335272
C     -3.4696537561     -0.1422637461     -0.4077275874
C     -1.9496378624     -2.5859420509     -2.3182284809
C     -2.9966430578     -1.8239325811     -1.8856743715
C     0.1176989263     -2.0296228938     -3.1492922108
C     1.0214978084     -0.9411160336     -3.035465987
C     -1.2276899066     -1.8156909483     -3.3731943752
C     1.436456773     1.3971072931     -2.7544177737
C     0.9704126634     2.7190265999     -2.4410751502
C     -0.3955997253     2.7304764853     -1.9975318253
C     0.5571317485     0.3926550338     -3.2553066552
C     -2.4606785592     1.5932090248     -1.5968583117
C     -3.2885423858     0.44943669     -1.7420559627
C     -2.9771329112     -0.5424477549     -2.6504388427
C     -1.773754682     -0.4860306014     -3.4371895784
C     -1.3439084829     1.776230566     -2.4699211772
C     -0.8939246762     0.6490509542     -3.3071626014


