56

 C     1.5984270243     -0.2096297267     4.1387540591
C     0.7867532774     -1.3243883997     4.2360599664
C     1.2269037792     -2.335837033     3.322475231
C     2.5554040602     -0.4437597319     3.0605630742
C     2.3287388805     -1.7784539068     2.5440942047
C     2.4073998223     0.6174913165     2.1460540964
C     0.7663121546     0.9223896782     3.7617906794
C     1.3423212588     1.5348851976     2.6410692389
C     -0.5987773484     -0.93702813     3.8738053548
C     -0.6217491157     0.4832633426     3.6437874657
C     0.0674500305     -2.7620155936     2.6005052508
C     -1.0425375271     -1.802013428     2.8606761943
C     0.215151593     -3.2285027791     1.327314624
C     2.388113616     -2.0198136746     1.1445643905
C     1.4939968305     -3.0348726388     0.6451004002
C     2.5360997123     0.4430150545     0.7343782702
C     2.6527075164     -0.9046054555     0.2103478341
C     2.061673491     1.5539365489     -0.1084905959
C     0.5379763617     2.2535999512     1.7315749475
C     1.0681105255     2.5164054597     0.4103132551
C     -1.4141739549     1.0011842324     2.6121146901
C     -0.9081663665     2.1831178963     1.9072211578
C     -1.8492226291     -1.3163701343     1.7617215828
C     -2.2071171885     0.0750984501     1.7932591368
C     -0.8281082727     -3.0353398089     0.3146585596
C     -1.8047063631     -2.0047103098     0.4607725392
C     1.2230636329     -3.1364542867     -0.7225103579
C     -0.2061316698     -3.2162385865     -0.9341074545
C     2.453831383     -1.092568849     -1.2257356537
C     1.7476380425     -2.2509637096     -1.6921535678
C     2.1610900785     1.4049948121     -1.4963066665
C     2.3767281412     0.0714766989     -2.0627779529
C     1.3439882668     2.1758239967     -2.4317959362
C     0.2334686205     3.2142131427     -0.505740991
C     0.3308186562     2.9946964291     -1.9496736548
C     -1.7129205837     2.761960204     0.9120541057
C     -1.1322065411     3.4389323424     -0.1861094576
C     -2.863021094     0.6105264416     0.6502920198
C     -2.8176222035     1.9912666303     0.3792641968
C     -2.2693848158     -1.3349794544     -0.7744687272
C     -2.906330837     -0.0886564681     -0.6231614824
C     -0.5395819743     -2.5019661812     -2.1129523332
C     0.7236221912     -2.1022910995     -2.7255492941
C     -1.6417296765     -1.6096212719     -2.0902696601
C     1.6986489793     0.0340142626     -3.2997734701
C     1.0676151869     1.3233993007     -3.5555331143
C     0.7502794588     -1.0135471396     -3.5765791556
C     -1.6298423594     -0.5650272298     -3.0984924057
C     -0.2508449733     1.1035230806     -3.9571520339
C     -0.4869524215     -0.3563271823     -3.8846122494
C     -1.0318681222     2.8748009978     -2.4835705533
C     -1.9093758828     3.1290517886     -1.3924006021
C     -2.9204614152     2.2219377266     -1.0421357949
C     -2.9670395697     0.9357334368     -1.6884270007
C     -1.3329980796     1.7900661166     -3.3472548517
C     -2.2514615667     0.7451776633     -2.8568515385


