56

 C     1.428589501     -0.003470931     3.9443194226
C     0.6126208846     -1.1274951205     3.6159776444
C     1.2235331932     -1.8648227978     2.54694965
C     2.5748160496     -0.0059587337     3.1537265439
C     2.4102580672     -1.1217921208     2.1934614508
C     2.6743293644     1.2924363348     2.5421820952
C     0.6378699982     1.1646974602     3.5594676523
C     1.3905656296     1.9958357444     2.7075339569
C     -0.7484256619     -0.7091531894     3.4693988295
C     -0.6911895701     0.760079812     3.2236049997
C     -1.5595875323     -1.4885786464     2.7115603113
C     0.4120497769     -2.5056396773     1.5644105042
C     -0.9994705234     -2.5751999098     1.890417967
C     0.792293985     -2.4602364375     0.1667319107
C     2.7883213034     -1.0037503522     0.8273637938
C     1.9889321459     -1.6668214709     -0.2013027979
C     3.373932748     1.408018497     1.3654197249
C     3.5592068834     0.201132769     0.4959000999
C     3.0379115302     2.4619810169     0.4879152276
C     0.7663147623     2.5735657523     1.5442876557
C     1.6413420021     2.9479537784     0.4798104957
C     -1.3583622779     1.2880646108     2.0906918444
C     -0.61459899     2.2149727153     1.2103582677
C     -2.6396874193     -0.8835839731     1.952055888
C     -2.4959377837     0.4986544012     1.5596766224
C     -1.9433816087     -2.8198453218     0.903383377
C     -3.0403459209     -1.8419616439     1.0029290354
C     -0.2320945925     -2.7573609267     -0.8485637134
C     -1.6121061597     -2.9460910781     -0.4639784873
C     -0.0449298885     -2.3025893535     -2.1995032671
C     2.076311291     -1.1245601775     -1.5511284915
C     1.0460294139     -1.3726791028     -2.4863163459
C     3.6621559641     0.6730835674     -0.8135153475
C     3.4700363639     2.1434721196     -0.8254864299
C     2.7970367674     0.0963346538     -1.7924636085
C     1.2238047389     2.8972624589     -0.8805522299
C     2.3570773388     2.3408569236     -1.6446312209
C     2.0887485858     1.1884495123     -2.4472227931
C     -1.056762696     2.3491291441     -0.1687155342
C     -0.0854562555     2.5531559778     -1.2515794178
C     -3.0387425777     0.8423150929     0.3059720881
C     -2.3335631193     1.8175967116     -0.5400847654
C     -3.4716808648     -1.5106302519     -0.2913522526
C     -2.7110527207     -2.3420508803     -1.2409008839
C     -3.65636025     -0.1330472832     -0.5698015069
C     -1.1328466883     -1.9880658606     -3.0347482161
C     -2.4662700051     -1.8686355877     -2.5256714789
C     0.5414702312     -0.3492329866     -3.3629933584
C     0.8265386967     1.0091207093     -3.0103168237
C     -0.2860661389     1.8616545337     -2.5502588656
C     -0.7821655418     -0.7229901113     -3.7031224985
C     -2.6232844989     1.541675367     -1.88195338
C     -3.4246781085     0.305545371     -1.9148527055
C     -2.9414014291     -0.5363961421     -2.8995664259
C     -1.5869327791     1.4371799385     -2.8611125667
C     -1.8247156541     0.1684150545     -3.553811656


