56

 C     1.3710153558     -0.4090309196     4.606149797
C     0.4746203061     -1.3794558843     4.2764057801
C     0.9772609071     -2.2130288324     3.176322683
C     2.5101853249     -0.5501369687     3.6673090091
C     2.2271831286     -1.6539017913     2.7275661905
C     2.7174238555     0.7024463416     3.122978996
C     0.7081664309     0.8887415619     4.331451825
C     1.5833972039     1.6079455112     3.5409300414
C     -0.797487524     -0.7959252399     3.8304148804
C     -0.6402214734     0.6356673961     3.784362181
C     -0.0702404947     -2.3907542501     2.268755418
C     -1.2009143745     -1.4879322611     2.6854707997
C     0.1969504913     -2.5123250359     0.8934856906
C     2.4310462089     -1.4927937673     1.3273389037
C     1.5077602782     -2.1696370953     0.4055106981
C     2.9237734467     0.9061605232     1.7387322554
C     2.9658406768     -0.2098884808     0.835035886
C     1.1651196581     2.3104127762     2.386892626
C     2.1288316115     2.0525670674     1.3292322367
C     -1.1031906507     1.3292285547     2.6298991377
C     -0.2208829892     2.3346509901     2.0095184153
C     -1.9161559035     -0.8250490591     1.6722813961
C     -1.9778752772     0.6135780567     1.6901586722
C     -0.9676578806     -2.4414959992     0.0050558481
C     -2.072840095     -1.5590287213     0.4123761405
C     -0.7812169685     -2.6900971978     -1.3449295087
C     1.6229034471     -1.9763904782     -1.0298612695
C     0.5803224833     -2.4944799307     -1.88890484
C     2.807694501     0.1090562779     -0.5293208146
C     2.3622441859     -0.863169042     -1.5088943777
C     1.8148562956     2.2856686251     -0.027696172
C     2.36560255     1.3900569994     -0.989138534
C     -0.4805543627     2.7346618626     0.6825793258
C     0.5383611272     2.8490751851     -0.3156997995
C     -2.4151751558     1.2479400921     0.4583922922
C     -1.7062889799     2.3854789676     -0.0094166996
C     -2.8816459527     -1.0129436873     -0.570806179
C     -3.1055619657     0.4486301983     -0.5304542088
C     -1.7475482725     -2.2909854205     -2.3538232752
C     -2.8181145169     -1.4361580544     -1.9592608227
C     0.4250152138     -2.0253252394     -3.1920154531
C     -1.0052152906     -1.9742538873     -3.5368865744
C     1.9243787377     -0.1583430663     -2.6819366823
C     1.7547310054     1.2211379276     -2.291066587
C     1.0194737883     -0.7595466073     -3.5799408082
C     -0.0768400459     2.6836133563     -1.6160321831
C     -1.5032119024     2.5785242882     -1.418681462
C     0.5582148547     1.9252214513     -2.6564257524
C     -3.2048743614     0.8730740666     -1.8542020053
C     -3.1194827034     -0.2860506903     -2.7576630305
C     -2.3022286374     1.8927709927     -2.3557112197
C     -1.2350827796     -0.7734812717     -4.2263097213
C     0.0144536699     0.021161188     -4.1993424561
C     -0.3027205059     1.3183404641     -3.6775822605
C     -2.2953645334     0.0731340071     -3.8355377194
C     -1.7282331169     1.4126641299     -3.5570667092


