56

 C     1.5685119611     -0.009948897     3.9335502977
C     0.7763731279     -1.1619514422     3.6396169594
C     1.4517429251     -2.0699609854     2.7559592488
C     2.6605739915     -0.0711595258     3.0155218916
C     2.6865047528     -1.3832921739     2.3931420659
C     2.5955921472     1.046794849     2.1331832274
C     0.751675609     1.1002581786     3.5364820996
C     1.4120950869     1.8268266704     2.5043760231
C     -0.5932166695     -0.7678204927     3.3778347426
C     -0.6152078289     0.6954691567     3.3035177123
C     -1.319446355     -1.4944587432     2.4517646452
C     0.697684354     -2.7857969411     1.748882303
C     -0.7061456534     -2.5512895619     1.6604424189
C     1.3709249584     -3.102626772     0.5133038954
C     3.1900894647     -1.5094328822     1.0956773393
C     2.6530867151     -2.5377321392     0.2668429544
C     2.9599188177     0.9169588408     0.7346151843
C     3.3936801804     -0.345559521     0.2478500084
C     2.3048313017     1.8090825158     -0.1707382456
C     0.6497448098     2.5280841379     1.5414725778
C     1.2459157927     2.6814242603     0.2543865054
C     -1.4209115861     1.3675584376     2.3690600745
C     -0.823137693     2.4886837225     1.6219111922
C     -2.3179655296     -0.8391799438     1.6522167851
C     -2.4586425849     0.5803917321     1.6756005401
C     -1.3986683965     -2.5732119519     0.4018816279
C     -2.4454406663     -1.5674597264     0.4207999637
C     0.6641241498     -3.1546516244     -0.7585543471
C     -0.7367306335     -2.8952682079     -0.8275887602
C     2.7191559399     -2.126366278     -1.1084002726
C     3.0421398387     -0.7486915318     -1.1159693969
C     1.5587053179     -2.599350717     -1.7824562775
C     2.0474729701     1.4582638803     -1.5557825719
C     2.341686835     0.1372469664     -2.0267801801
C     0.4448639414     2.9973523545     -0.8963609632
C     0.909915315     2.2011150883     -2.0228475213
C     -1.5448791572     3.016486063     0.5381284913
C     -0.8910983126     3.3185054476     -0.7380325589
C     -3.1493461899     1.1585361994     0.5852763024
C     -2.8395344726     2.4875829969     0.1767155736
C     -2.9380676779     -0.9544920554     -0.7734728869
C     -3.4379214778     0.4007210349     -0.6351200109
C     -1.267690318     -2.3005864023     -2.0398282066
C     -2.3968403402     -1.3674361123     -2.0206981042
C     1.025789099     -1.8419261833     -2.8139672702
C     1.4253335205     -0.4359374908     -2.9574695935
C     -0.3738719634     -1.9038324481     -3.0625837774
C     -0.0302972312     1.6389324607     -2.9358178204
C     -2.112133024     -0.3429562888     -3.0127967837
C     0.2563208937     0.306326185     -3.4073010195
C     -0.8151146469     -0.6206857661     -3.535599395
C     -1.8162495907     2.9488901987     -1.7902400772
C     -3.0890536706     2.6229045533     -1.2293080434
C     -3.3857446579     1.3173133617     -1.7258415905
C     -1.4215453975     2.018057413     -2.8096755006
C     -2.4595520718     0.9932960709     -2.7967814258


