56

 C     1.5777329855     -0.2772934116     4.2370492841
C     0.7541860401     -1.4009447304     4.1829200618
C     1.2637820864     -2.3915512255     3.29024651
C     2.6082074392     -0.478441112     3.2457529139
C     2.3839279829     -1.7738829416     2.6014991952
C     2.5900680306     0.6302630929     2.3809577784
C     0.7701661193     0.8499774085     3.7911316994
C     1.4356633691     1.5075775915     2.763907521
C     -0.5912771382     -1.0258790137     3.7321110307
C     -0.5950662991     0.3992160727     3.487519973
C     0.1472825261     -2.8341204568     2.4958801554
C     -1.0140733269     -1.9364038442     2.7403123566
C     0.36641405     -3.2354895902     1.2102382528
C     2.5193215294     -1.9289121778     1.1772456688
C     1.6531450838     -2.9096283695     0.5711724001
C     2.9016130227     0.5240516736     1.0014927192
C     2.883240468     -0.7766845485     0.3323505798
C     2.5894396133     1.6875361796     0.2428420596
C     0.7019975882     2.2210380414     1.7640206763
C     1.4261878555     2.5687550254     0.6246955443
C     -1.2985353504     0.8927312465     2.3794785529
C     -0.7483539952     2.0219671678     1.6073481866
C     -1.8174109228     -1.487461474     1.6584002787
C     -2.1340724152     -0.0602663783     1.640742614
C     -0.6717154511     -3.0807191985     0.1921488248
C     -1.7864627275     -2.1865046901     0.3776336639
C     1.4063489016     -2.9028023708     -0.8046784716
C     -0.0272708383     -3.1081556409     -1.0501026722
C     2.6070613231     -0.791913477     -1.1171559449
C     1.826159998     -1.8703059641     -1.65343083
C     2.6144777349     1.6682571513     -1.1311432148
C     2.5066625913     0.4395031495     -1.8444022395
C     0.7984580144     3.0436023977     -0.5595316391
C     1.593650347     2.5827131427     -1.6471824381
C     -1.4012047112     2.4763226816     0.4176043168
C     -0.6366143855     3.0734164909     -0.6910016109
C     -2.8132946463     0.4264657188     0.5431418756
C     -2.6327657799     1.7962813392     0.0590945072
C     -2.384582524     -1.5925726028     -0.8030968107
C     -3.1581166137     -0.3978115533     -0.5982924963
C     -0.4328841867     -2.3210625972     -2.1375231798
C     0.7314380393     -1.6027399571     -2.5978167392
C     -1.7220569417     -1.694625267     -2.1141617297
C     1.5289475614     0.6605297762     -2.9035451748
C     1.0272087697     2.0432408454     -2.7957855036
C     0.583045249     -0.3478292663     -3.2328476442
C     -1.1400596034     2.9735359592     -2.0288091664
C     -0.3140772377     2.3755092979     -3.0705292459
C     -3.1922194552     1.8722482473     -1.2188790087
C     -3.515542254     0.4732450173     -1.6484955604
C     -2.4884629373     2.4832266877     -2.2806607039
C     -1.9160976787     -0.6677241847     -3.0838896994
C     -0.7677675831     0.0367229983     -3.6228974677
C     -1.1397055667     1.4260460715     -3.7739573147
C     -2.9598087199     0.3209595579     -2.9215046327
C     -2.4963350402     1.6067859937     -3.4176180716


