56

 C     1.5784978474     -0.0934040131     4.1866684882
C     0.7158001659     -1.2568684541     4.2016690554
C     1.3770162709     -2.3035751003     3.4982037751
C     2.608539651     -0.3721254594     3.1987843754
C     2.5817296083     -1.727203127     2.8522346515
C     2.5678924738     0.6212803119     2.1433797201
C     0.8249796124     0.956190684     3.6338023019
C     1.4595434372     1.5214293772     2.4649212732
C     -0.5920673676     -0.8787364082     3.7366954526
C     -0.5498594882     0.5629731823     3.4732895751
C     -1.3055295788     -1.7001654594     2.7774736724
C     0.7176011367     -3.07650975     2.5274076954
C     -0.6082602685     -2.7981544687     2.1282674329
C     2.5769007037     -2.1061153802     1.4667841345
C     1.5205328939     -3.0358543791     1.2939925535
C     2.7700199764     0.274441486     0.7878452613
C     2.7545443978     -1.1370184737     0.4199462889
C     2.3600760406     1.2718332591     -0.2015285397
C     0.704746192     2.1474357078     1.4600401735
C     1.3450774506     2.2741707559     0.1559840848
C     -1.3475630343     1.1825827656     2.4937728968
C     -0.7600176668     2.1383479599     1.5397867099
C     -2.2744780874     -1.0554731161     1.9911553221
C     -2.4422727143     0.3868288623     2.0178118558
C     -2.6187646431     -1.5000394859     0.6281422815
C     -0.6811679737     -2.911755941     0.65056938
C     0.6716311138     -3.0154539236     0.1687368696
C     -1.6517982167     -2.2639107607     -0.1276999134
C     2.2167707905     -1.457579051     -0.8823346861
C     1.0565097495     -2.3306007836     -1.0038048397
C     2.4842028442     0.9316271572     -1.5514106767
C     2.3883688961     -0.4850453089     -1.8961671208
C     1.8495357097     1.683960069     -2.6234332282
C     0.6447099109     2.9125565344     -0.8743819046
C     0.9567636887     2.7023751518     -2.2894871501
C     -1.4924812341     2.5200362796     0.3599036806
C     -0.7931940569     3.0639257354     -0.7604958328
C     -3.1113292621     0.7525454068     0.8475626312
C     -3.2736419441     -0.4564019674     -0.0064006657
C     -2.7207341341     1.7999784482     0.0313762263
C     -3.0663729838     -0.0997631814     -1.3403505304
C     -2.9647454531     1.3710559244     -1.3592357254
C     -1.3547621444     -1.8716671765     -1.5206944563
C     0.025610313     -2.0175743708     -1.9873909658
C     -2.1919859333     -0.8718454468     -2.1827414442
C     1.7012111988     -0.5986964254     -3.1110325712
C     1.4675788349     0.7227479675     -3.6578013167
C     0.4429326377     -1.3144712574     -3.1541186785
C     -1.722796379     -0.1897210935     -3.3732385683
C     0.2166223572     0.7480764333     -4.2704482273
C     -0.4581813572     -0.5162753651     -3.9145753282
C     -0.2875289739     2.8303330045     -3.03351625
C     -1.3303659486     3.0001847083     -2.0896385677
C     -2.368766213     2.0113643653     -2.4143948339
C     -0.6813042251     1.806884949     -3.9652198005
C     -1.9359766515     1.2468386516     -3.5446660273


