56

 C     1.1648306085     -0.0332827934     4.0855662901
C     2.2769915152     -0.1409284477     3.2863460507
C     2.2191620078     -1.4081448187     2.5264331959
C     0.3329854169     -1.2386018034     3.7906172274
C     0.9628880695     -2.0107622469     2.7307497461
C     -0.9460452079     -0.7934111749     3.6129073065
C     0.3316662343     1.1528193978     4.0005678476
C     -1.0077268185     0.6693084083     3.8117049156
C     0.7720236013     2.2385239926     3.1884535882
C     2.6609456466     0.8886145713     2.3414641132
C     1.9352783455     2.0722258039     2.3048963143
C     2.7218098164     -1.1751108756     1.2313285612
C     3.0161010919     0.2330943239     1.0932751576
C     2.2139000779     -1.9429118589     0.1381529229
C     0.2080876326     -2.4496585079     1.5761084444
C     0.9381851878     -2.6495551347     0.3381996729
C     -1.7153976247     -1.144079718     2.4448094707
C     -1.1999949022     -2.0624086413     1.4732262699
C     -1.8625887044     1.1747502378     2.814707268
C     -2.3672858632     0.0426048746     2.0000563562
C     -0.2094724285     2.9068933184     2.3947458275
C     -1.4936143811     2.3667496504     2.1522186146
C     1.6150821423     2.6551808998     0.9765102007
C     0.3482082268     3.2423182571     1.0920430729
C     2.8265989525     0.8366014103     -0.1791076842
C     2.003450608     2.0448946795     -0.2678585457
C     2.546210229     -1.4563251452     -1.1401773727
C     2.8593869352     -0.0516647103     -1.2858538848
C     1.8401552954     -1.8975990075     -2.3403784426
C     0.1959304312     -2.9822001087     -0.8210810875
C     0.711230091     -2.7334668695     -2.1895566046
C     -1.8643366437     -2.0861044714     0.1906056893
C     -1.2208491301     -2.8310313958     -0.850523153
C     -2.7494314695     0.1974784603     0.6452475249
C     -2.7429671736     -0.9820783634     -0.1997520324
C     -1.7828750655     2.4897350893     0.7257113172
C     -0.6291701013     3.0709479917     0.0749190856
C     -2.5281599919     1.5174660747     0.0324794543
C     1.140987592     2.2120657972     -1.4394683958
C     -0.2326367734     2.6751216743     -1.2293290153
C     2.302212219     0.3458389223     -2.5311340699
C     1.7605818755     -0.8069905924     -3.2369465408
C     1.3772840053     1.395903416     -2.6012667819
C     0.5525209262     -0.4453477698     -3.9076370844
C     0.2959418183     0.9484137077     -3.5163754557
C     -0.3807108781     -2.548985532     -3.0578278271
C     -1.6002221253     -2.6537435161     -2.2303670369
C     -0.5105992275     -1.3950613439     -3.9034124645
C     -3.0360418715     -0.7958869291     -1.605095819
C     -2.5084663154     -1.7065793516     -2.6094027486
C     -1.8673209343     -0.9177543559     -3.7041372821
C     -2.4261430754     1.5753882094     -1.3918669416
C     -1.2652070665     2.1372779749     -2.0439538972
C     -1.003051386     1.3558531929     -3.2416469086
C     -2.8963356013     0.4913841693     -2.1587515515
C     -2.083985849     0.4022209886     -3.3911428479


