56

 C     1.4159905282     -0.1494647711     4.7239024149
C     0.4845929061     -1.1332549005     4.4957969
C     0.9944689217     -2.1691330014     3.5719815214
C     2.5893620215     -0.4790791483     3.9022521555
C     2.3294279268     -1.7445718703     3.1921182223
C     2.8940945253     0.6577122887     3.1534724682
C     0.8413895885     1.1190627809     4.2260465431
C     1.7644697456     1.6332277034     3.332579436
C     -0.7209370552     -0.5688505975     3.9298385237
C     -0.4969848081     0.8454138228     3.6925498468
C     0.017683973     -2.3705774917     2.5813274998
C     -1.091205178     -1.3989066625     2.8533193831
C     0.3695219883     -2.5999964512     1.199401006
C     2.6656619135     -1.8250827659     1.8401415925
C     1.7452404995     -2.4330827353     0.8809196662
C     3.1616848401     0.590369102     1.7601956915
C     3.2343472942     -0.6761043956     1.1367914224
C     1.4057887253     2.1187579793     2.0395707175
C     2.3767499878     1.6363148622     1.0810527979
C     -0.8984020428     1.3731804897     2.4416624179
C     0.0459262764     2.1449203951     1.6171288702
C     -1.7665758089     -0.8541421054     1.7733509549
C     -1.8292521744     0.586541511     1.6469587795
C     -0.6302565927     -2.3621104025     0.1502908931
C     -1.8204170111     -1.6272651149     0.5326424888
C     -0.2779568242     -2.3084956325     -1.2611999331
C     2.0418099812     -1.9371742723     -0.4260875788
C     2.8567076911     -0.7633328168     -0.2331440609
C     1.1296123828     -2.0016785527     -1.5031653273
C     2.0720136372     1.5726319589     -0.2789488404
C     2.5438642505     0.400016925     -1.0123246433
C     -0.2160152135     2.3255363408     0.2106392526
C     0.8407362889     2.1888050573     -0.76287592
C     -2.340804616     1.1223740441     0.4355057118
C     -1.5838466325     2.1584009327     -0.2621207204
C     -2.6741366248     -1.1414876708     -0.4314359077
C     -3.1619507379     0.2461186384     -0.3551151696
C     -1.2753048997     -1.9475926011     -2.2791343273
C     -2.5646769927     -1.4859196543     -1.8318422772
C     -0.8322209335     -1.3783893995     -3.5538844912
C     1.4454152149     -1.1376644099     -2.594944354
C     2.0132919824     0.1630336848     -2.2713023288
C     0.5201664753     -0.9168576625     -3.6125887657
C     0.5217386727     2.1243354879     -2.1844000824
C     1.2448247846     1.167113705     -2.9887455351
C     0.5616495694     0.4864599687     -4.0412962054
C     -1.8744526362     2.4121695034     -1.6136917153
C     -0.8182033415     2.4558312052     -2.6035967694
C     -3.5709839448     0.6045292596     -1.6284747353
C     -3.3124416683     -0.5035437768     -2.5517064779
C     -3.0480870977     1.7958436967     -2.2539337872
C     -1.6074362772     -0.3825239546     -4.2463956499
C     -0.7247293444     0.8293262836     -4.4265492089
C     -1.3885383242     1.9213813486     -3.8333632069
C     -2.8348422947     0.0714851816     -3.7600357578
C     -2.7675735479     1.5453886403     -3.5991334102


