56

 C     1.5839170157     0.0705183547     4.1830178137
C     0.7884140649     -1.1543507299     4.0882162227
C     1.4933269705     -2.0863028366     3.3392512128
C     2.6644946773     -0.0310560074     3.2726941213
C     2.691491427     -1.3809344777     2.7946296708
C     2.5884273581     1.0790276339     2.3207199924
C     0.7512015861     1.1465795977     3.7713829501
C     1.4498885475     1.8879590164     2.7551038587
C     -0.5605210308     -0.7742712805     3.684353827
C     -0.5712620468     0.6733021653     3.471822048
C     -1.2289468346     -1.5630284442     2.7579224245
C     0.8576392197     -2.7684172322     2.2502475006
C     -0.5348219945     -2.6456278271     2.0524428808
C     2.7174647759     -1.6175703878     1.4308116
C     1.6803096044     -2.6311089491     1.0842625019
C     2.7795680424     0.8724707609     0.9337703122
C     2.955363508     -0.5270152995     0.4855188827
C     2.1667057929     1.8143292047     -0.0317038319
C     0.6955945645     2.5449123178     1.8153602862
C     1.1805551355     2.690183676     0.4756635556
C     -1.3373624934     1.26255909     2.3924998783
C     -0.7480569027     2.361362979     1.7223491953
C     -2.1638892378     -0.9694363174     1.8196259282
C     -2.2613761504     0.4326697001     1.6022114745
C     -1.0847349032     -2.7403732139     0.7338696568
C     -2.2435505434     -1.8651206944     0.6984213692
C     1.1634214985     -2.725663359     -0.2139788928
C     -0.2819790307     -2.8545127899     -0.4410987835
C     2.7077546034     -0.8390635216     -0.8386150666
C     1.9336148619     -2.0523263081     -1.2212109772
C     2.0956350001     1.4870030506     -1.4712056418
C     2.4793060334     0.1647206151     -1.8650075757
C     1.137516502     2.1345211397     -2.3152022624
C     0.0498051052     3.0873863676     -0.3343270702
C     -1.1506422069     2.742055889     0.3942204173
C     0.0978934907     2.978716107     -1.7098881345
C     -2.7731292675     0.9032593646     0.301663328
C     -2.2602269132     2.1568430478     -0.2826587237
C     -2.7804282221     -1.4403943442     -0.4813962689
C     -3.2409224321     -0.0870969573     -0.618164401
C     -0.8576042546     -2.4466018441     -1.7359422693
C     -2.1925015873     -1.889324707     -1.754347907
C     1.4009593342     -1.8153079077     -2.4645889371
C     1.8118284592     -0.482771429     -2.9272175727
C     0.0089417487     -1.9812109305     -2.7775317419
C     0.5097183425     1.4671949003     -3.4416601028
C     0.7598643331     0.0869162945     -3.6522339
C     -0.3623050062     -0.8900368457     -3.6748947705
C     -1.1234208308     2.8019476566     -2.3940352655
C     -2.2878369851     2.3551753436     -1.7181942652
C     -0.857895655     1.9124059342     -3.5364435198
C     -3.2590223186     0.1539686515     -2.0352966812
C     -2.5875913283     -0.9714436794     -2.7305763951
C     -1.6778885563     -0.4077772308     -3.6849325197
C     -2.8592067404     1.3385887906     -2.5923829184
C     -1.9134981307     1.0315678926     -3.6873164832


