56

 C     1.5201449376     0.1370548438     3.933488587
C     0.7446210934     -1.02364312     3.7563155629
C     1.3470268619     -1.8593244781     2.7403991678
C     2.5748118684     0.139601796     2.9321957242
C     2.5185859671     -1.1327390427     2.2669993549
C     2.471395274     1.3211901086     2.1662521218
C     0.6981297573     1.2821226081     3.7385105403
C     1.3680035568     2.1084585674     2.7642924699
C     -0.6378434354     -0.5945248976     3.6088267482
C     -0.6664792756     0.8738283367     3.5184854037
C     -1.4398083096     -1.3213682781     2.7829916254
C     0.5270498288     -2.5855253494     1.8221687104
C     -0.8927564248     -2.465204707     2.029167458
C     0.9928308291     -2.823186654     0.4395863113
C     2.8073309598     -1.168169023     0.9156242132
C     2.1755199614     -2.1328400924     0.0481948069
C     2.6334493954     1.3045441088     0.7183562991
C     2.9693600416     0.0528300045     0.1526294463
C     1.9084420812     2.2771966885     -0.1216615784
C     0.6034040105     2.8731103437     1.9401366786
C     1.0160268978     3.1690583097     0.564967954
C     -1.4472481161     1.5177908588     2.5134816139
C     -0.8641552364     2.7135871553     1.9469873109
C     -2.4327873023     -0.6577639444     1.9206142236
C     -2.3586505037     0.7410439853     1.6454421724
C     -1.7577096364     -2.6582939279     0.9501703311
C     -2.7412494605     -1.5548917599     0.8969675057
C     0.0363784066     -3.1416856786     -0.6414900075
C     -1.3656729167     -3.0012403787     -0.3453438771
C     0.4014726343     -2.9310798579     -2.0072236776
C     2.3650278152     -1.6695055032     -1.3051776332
C     2.6932681047     -0.2601113549     -1.233626698
C     1.600805194     -2.1730141347     -2.3411730647
C     1.6263042203     1.9574024594     -1.5382742492
C     2.0719703572     0.6681255986     -2.1008269445
C     0.4744944818     2.5552486549     -2.1540634089
C     -0.1518301229     3.6329446807     -0.0739773267
C     -1.321301854     3.195699769     0.7333609458
C     -0.4132986269     3.3365784744     -1.3868093886
C     -2.6631506556     1.1697410616     0.2663389253
C     -2.220365652     2.4844635358     -0.1186406947
C     -1.7565149618     2.7023995735     -1.451842042
C     -2.9030560718     -1.1907985028     -0.4406028695
C     -2.2425574557     -2.2312586919     -1.2476077971
C     -2.8491414375     0.1850884413     -0.8173095068
C     -0.5970557288     -2.5443907584     -2.9802368653
C     -1.8604727952     -1.9803361017     -2.5299889998
C     1.3050902286     -1.2995869468     -3.4430697332
C     1.3915197864     0.0971858293     -3.2557969272
C     -0.038350063     -1.6294492713     -3.8917065383
C     -0.3859635331     1.7516939127     -3.0274725798
C     -1.7361218432     1.7252408503     -2.4311527416
C     -2.3851082148     0.4547564254     -2.1955093444
C     -1.9750941448     -0.6094447386     -3.0520632648
C     0.0850587774     0.654281757     -3.6773664563
C     -0.8237695514     -0.4429015466     -3.9029380035


