56

 C     1.4988225005     -0.055572153     3.7309240843
C     0.7353971356     -1.229494051     3.633338569
C     1.3563646842     -2.0809271538     2.6394359246
C     2.6297133214     -0.1138410851     2.8629507836
C     2.6226400119     -1.4307163891     2.2730413297
C     2.5444806366     0.9968967759     1.980410662
C     0.6674087952     1.0694436251     3.3936402349
C     1.2961737595     1.7303634007     2.2854361331
C     -0.6553470804     -0.824880297     3.5134799756
C     -0.6844965621     0.6500676279     3.3219443654
C     -1.470534968     -1.5991146772     2.7450948997
C     0.546473531     -2.6806529246     1.6293008741
C     -0.8775367626     -2.6167771945     1.85200001
C     1.0169855298     -2.7505035617     0.2327139485
C     3.0950837162     -1.5575231869     0.9960286831
C     2.3802388055     -2.3759576181     0.0027172228
C     3.0214240694     0.8994939709     0.6453758929
C     3.5691852671     -0.3819488766     0.2786012046
C     2.3931353555     1.7412064578     -0.390954069
C     0.5120493534     2.2650049361     1.2561508378
C     1.1043936114     2.3908650433     -0.0991100441
C     -1.5439220017     1.2304513106     2.3721339755
C     -0.9538630836     2.215606758     1.4422728737
C     -2.611558846     -0.9925763039     2.0541143483
C     -2.7062252798     0.4472492801     1.9140406001
C     -1.7343310881     -2.6811396046     0.7648133809
C     -2.9029687549     -1.81341066     0.9587028264
C     0.0904288557     -2.575525707     -0.8934193446
C     -1.304863006     -2.5555381397     -0.588943935
C     0.4968999702     -1.9331194882     -2.1498780793
C     2.793602056     -1.965707904     -1.2650658593
C     3.6215584359     -0.7504218058     -1.0922402997
C     1.9032871353     -1.7419983983     -2.3571992709
C     2.7178143743     1.4350036055     -1.7616555802
C     3.3109284469     0.1356266613     -2.0817823605
C     2.393128933     -0.5516189793     -3.0168968132
C     1.7505129505     1.6648427554     -2.7688018981
C     1.5017289441     0.3804062269     -3.4692296129
C     0.2104539007     2.726831123     -1.1854696519
C     0.5214915941     2.2555442356     -2.512758959
C     -1.7742073761     2.6859714277     0.4051189375
C     -1.1878899639     2.9491739408     -0.9309450463
C     -3.4349777981     0.9175491571     0.8036847226
C     -3.103352788     2.2055414595     0.2275348302
C     -3.2668063791     -1.2741713303     -0.292422326
C     -2.25638516     -1.7206858262     -1.2779145229
C     -3.7492193105     0.0301228868     -0.3215910146
C     -0.4476348911     -1.0000978443     -2.8107111106
C     0.0988771683     0.1515049479     -3.4580206777
C     -0.5057051062     1.4518493792     -3.2043309168
C     -1.8407488043     -0.8705472481     -2.3383688717
C     -2.1684642993     2.619798072     -1.895459551
C     -3.3150146582     2.1446934703     -1.1815264292
C     -3.5334805138     0.7849861032     -1.5243882728
C     -1.8119458426     1.5772747084     -2.8457231132
C     -2.5592025553     0.3710990609     -2.5001944802


