56

 C     1.2785199048     -0.0610895278     3.9423400109
C     2.449292571     -0.3584768466     3.284931965
C     2.2915343095     -1.6865222285     2.5888248405
C     0.4045096937     -1.2572010468     3.8015924579
C     1.0002462298     -2.1779131752     2.8323141396
C     -0.8751857593     -0.8274483132     3.6294045258
C     0.4933275733     1.0875948535     3.5187785352
C     -0.8637614995     0.6445306856     3.5272731046
C     0.9499221396     1.9418419487     2.4280113178
C     3.0297057726     0.5441297694     2.3834980119
C     2.2693504043     1.6749435193     1.9295285256
C     2.8032697084     -1.5461863987     1.2719170215
C     3.3398431687     -0.2190549289     1.1881619262
C     2.1076907228     -2.1183062238     0.1540332533
C     0.2193293498     -2.706949129     1.7422609453
C     0.8958154644     -2.8903599836     0.4436999223
C     -1.7049440823     -1.3525608662     2.5771525847
C     -1.2113313804     -2.3931221565     1.7150040376
C     -1.7408096633     0.981612907     2.5081647887
C     -2.3864431461     -0.2445789448     1.9990190086
C     -0.0470276422     2.4868473801     1.4756763286
C     -1.4198842233     2.0332783378     1.586869115
C     0.3804529904     3.0084307921     0.1615282186
C     2.4968603799     1.7877775512     0.4941633237
C     3.1069922563     0.5585593291     0.0460992118
C     1.6603170034     2.5142767909     -0.3600667666
C     2.2571124537     -1.4562083144     -1.1467447537
C     2.7075163468     -0.0665556317     -1.1730139725
C     1.4049927411     -1.8834065915     -2.2145784113
C     0.0937671784     -3.2772220443     -0.6704773969
C     0.4394171921     -2.863409957     -1.9900053095
C     -1.9267511981     -2.5517345861     0.4830032392
C     -1.3404954496     -3.2076028539     -0.5925725017
C     -2.9331845893     -0.2925225454     0.6795794019
C     -2.8040153575     -1.4925721897     -0.0507433774
C     -2.2970948803     2.1231902931     0.4634442098
C     -3.0166354491     0.9176285935     -0.0464763549
C     -0.6185384336     3.3456361773     -0.8053112601
C     -1.9699899175     2.9225956824     -0.6089580957
C     -0.3796527896     3.1706144616     -2.2267760849
C     1.7843451793     2.1578878055     -1.7573003508
C     2.2082029692     0.8383937441     -2.1419634285
C     0.7632127697     2.5621699441     -2.6713978448
C     0.8571493496     -0.922051707     -3.1963447731
C     1.3241363902     0.3799771483     -3.2209285976
C     0.4134441506     1.4122819276     -3.5341842259
C     -0.7918023685     -2.4203599845     -2.6831893021
C     -1.8497970687     -2.5979084294     -1.8258636821
C     -2.684513593     -1.4751978102     -1.4885428941
C     -0.5633019295     -1.1758049195     -3.346630664
C     -2.9564982437     0.9351490995     -1.4671159127
C     -2.4375261606     2.2336546815     -1.8352484171
C     -1.5124924818     2.3867189585     -2.8184129213
C     -0.9884236132     1.2187585032     -3.5155316434
C     -2.5895021449     -0.2452609799     -2.2186991374
C     -1.5206732986     -0.1008925509     -3.2491959016


