56

 C     1.6375084211     -0.1410235178     4.2793351584
C     0.8098359967     -1.27788491     4.3413856239
C     1.2155326445     -2.2614014731     3.3971431759
C     2.5419069555     -0.3238395151     3.1830608109
C     2.296727533     -1.6707968619     2.6422707055
C     2.3181522619     0.7535035735     2.2703057596
C     0.7644205028     0.9787705028     3.9732826406
C     1.2514022634     1.6193741407     2.8117736054
C     -0.5910094138     -0.9117732899     4.1014490913
C     -0.6259765566     0.5262838441     3.9811078549
C     0.0217927668     -2.6243436135     2.6694149343
C     -1.0852825178     -1.7109599368     3.0443744782
C     0.1416295891     -2.9636776337     1.3535736722
C     2.3738440816     -1.8822312285     1.2531786876
C     1.4216109559     -2.800390603     0.6888584537
C     2.4554911719     0.610348763     0.8555052102
C     2.7271792059     -0.7436877453     0.3749686531
C     1.8403468844     1.5773390979     -0.049251938
C     0.3718621325     2.2754306142     1.9113341128
C     0.7967827327     2.4571256395     0.5074310446
C     -1.4668512618     1.0603870826     3.0302649759
C     -1.0221200491     2.1537408182     2.194217498
C     -1.9243868248     -1.1580546276     1.9890880696
C     -2.2602454308     0.2091652826     2.1375836352
C     -0.8771640885     -2.6588917937     0.3426856318
C     -1.8720387517     -1.6866292821     0.6021288707
C     1.1738472719     -2.8393527185     -0.6991571736
C     -0.2673081934     -2.7753253418     -0.9419570716
C     2.6864121664     -0.9421895793     -0.9965448129
C     2.0236021639     -2.1369011312     -1.5548043577
C     1.8934142243     1.3753040796     -1.498278033
C     2.4656664759     0.1319547588     -1.9348465343
C     0.9573080638     2.0747696657     -2.4214739483
C     -0.1283173927     3.0188368918     -0.3786427269
C     -0.0394025566     2.9088563917     -1.8195339005
C     -1.932644597     2.2492287076     1.108099894
C     -2.6388791484     0.9847214152     0.9981763021
C     -1.5649807396     2.9479419536     -0.0259688789
C     -2.3717745964     -0.9166240543     -0.5562992495
C     -2.8731751376     0.4382679898     -0.2932464146
C     -0.7923194617     -2.1552089477     -2.1011156749
C     -1.937856354     -1.2502957275     -1.9152702774
C     1.5551178076     -1.8300098323     -2.8271789725
C     2.0228640024     -0.4685291638     -3.1637569614
C     0.1718881631     -1.9082957498     -3.1660365975
C     0.5791929872     1.4312354125     -3.682864454
C     1.0927942725     0.1317446351     -3.966143463
C     -0.0567979215     -0.8311189442     -4.0903642763
C     -2.1952619474     -0.288877571     -2.983855312
C     -0.8192709406     1.345313714     -4.0417768516
C     -1.197539799     -0.098235505     -4.0421952472
C     -1.3954892051     2.9016124951     -2.3225409274
C     -2.2718908926     2.6876617552     -1.1952188215
C     -2.935098283     1.403112852     -1.3603815655
C     -1.7812606088     2.0123031081     -3.3303324958
C     -2.6837910183     0.9922150838     -2.6829616227


