56

 C     1.6437628049     -0.0077393579     4.3898332581
C     0.8335400072     -1.1817505829     4.4323395882
C     1.2800384369     -2.0965391476     3.4424309427
C     2.4842621744     -0.1771284072     3.2089029437
C     2.3381375713     -1.4960672976     2.6635423361
C     2.4027613127     0.9353973464     2.3021100532
C     0.7780467802     1.04517525     3.9790580973
C     1.378377233     1.8007833425     2.9023375478
C     -0.5049108588     -0.837103646     3.9929600988
C     -0.5843280957     0.5723456909     3.7785092513
C     0.1345121084     -2.6614861061     2.7399377398
C     -0.9866481011     -1.7511878605     2.9700908648
C     0.3511306906     -3.1291944223     1.4892827014
C     2.3999146756     -1.7049692028     1.2530247448
C     1.6332416055     -2.8376079005     0.7975592084
C     2.4486352634     0.7688397134     0.8877331456
C     2.5645833709     -0.5787206431     0.3242448579
C     1.8385362237     1.828369457     0.0515867511
C     0.5406368939     2.4810729391     2.0763730484
C     0.9274528098     2.7067485531     0.6981362751
C     -1.3722150745     1.0785624392     2.7048034008
C     -0.9086887752     2.2864838021     2.0972453307
C     -1.7520819219     -1.2919576354     1.8706152644
C     -2.0965677994     0.1376524717     1.8218221002
C     -0.6966556061     -3.0417569674     0.4799106016
C     -1.6958393985     -2.0489555834     0.5885939586
C     1.3871151264     -2.9801000669     -0.5433708932
C     -0.0521218534     -3.2534648108     -0.7778227864
C     2.2799310543     -0.762995684     -1.0993183127
C     1.7950685815     -2.0411942676     -1.5159659707
C     1.7171385761     1.6839868189     -1.3944530283
C     1.996453424     0.3858152475     -2.0023714911
C     0.8096056077     2.5715661968     -2.0860944598
C     -0.2508026864     3.1612944335     0.0249758995
C     -1.384869731     2.7064287562     0.8324360231
C     -0.3059820267     3.1419640428     -1.3403573562
C     -2.6177836567     0.6325306924     0.6146472824
C     -2.3849143583     1.9853999354     0.1661284576
C     -2.2036360143     -1.4669696375     -0.6718819976
C     -2.7810958255     -0.1797799932     -0.5979829186
C     -0.4453362495     -2.6820214326     -1.9572267621
C     0.7895487774     -2.116674811     -2.5614193744
C     -1.6477017062     -1.8671483919     -1.9826727294
C     1.4367629118     0.112188778     -3.2960953488
C     0.7061098871     -1.1442314353     -3.4916290247
C     0.3166646158     2.2676099263     -3.3785181752
C     0.6614363667     1.0890783712     -4.0174310979
C     -1.547619077     2.7803283065     -2.0169627432
C     -2.492169128     2.0401872272     -1.2703469037
C     -2.8445518944     0.7035312977     -1.7404432818
C     -1.1844275558     2.3451821625     -3.3234893447
C     -1.7821738877     -1.0166169168     -3.1026716062
C     -0.6192516408     -0.8203798019     -4.0110242216
C     -0.5981564951     0.4656624259     -4.4980440807
C     -2.4256203902     0.267339403     -3.0110585835
C     -1.7072551132     1.1922170031     -3.8925192809


