56

 C     1.3786897492     0.0467491926     3.9165950316
C     2.5070097178     -0.1034764249     3.0902665399
C     2.4540583311     -1.418818285     2.4814524226
C     0.5261050635     -1.1453499901     3.7553300951
C     1.2106891648     -2.0369459378     2.8869970249
C     -0.8034334515     -0.7211527006     3.4357593693
C     0.5628335509     1.1848699332     3.7885119603
C     -0.8304333109     0.7002271635     3.5323209684
C     0.8446784124     2.1926786441     2.8680457596
C     2.7722642795     0.8627720666     2.0635186011
C     2.0077800389     2.0737325218     1.9958115597
C     2.7439819078     -1.2846140714     1.1086431064
C     3.042745871     0.1213417128     0.8346291716
C     2.0779548338     -2.0832756944     0.1175178006
C     0.462050261     -2.7028315916     1.9090604891
C     1.007306452     -2.9082993289     0.577457918
C     -1.5609223514     -1.3396259693     2.3740323082
C     -0.9573165664     -2.4832930832     1.7652924217
C     -2.4372288423     -0.5080994682     1.5348671777
C     -1.4287593829     1.4966234626     2.5629411875
C     -0.4618344423     2.5525671738     2.2392290131
C     -2.28532472     0.9415377022     1.5447421137
C     -0.5139745142     3.1847691663     1.0370373603
C     1.9074126641     2.6838179485     0.7054432767
C     0.7289310366     3.4725017447     0.3453259177
C     2.8028462524     0.6658039338     -0.4381212156
C     2.3830122537     2.0431042715     -0.4757446788
C     2.0612114974     -1.6251529852     -1.275192248
C     2.4379940097     -0.2327852061     -1.559784408
C     1.1597009974     -2.2921789747     -2.168189642
C     -0.091009331     -3.2277357593     -0.2928115463
C     -1.3255812057     -2.9126043031     0.434734268
C     -0.0005386255     -3.0158837143     -1.6455563831
C     -2.9546737703     -1.1034768597     0.3388505304
C     -2.3868629149     -2.3416971278     -0.223132079
C     -3.3191483145     -0.3131739946     -0.7596167613
C     -2.4133689124     1.6982686483     0.2954377997
C     -1.5121617129     2.7867579801     0.0404082765
C     -2.9179805743     1.0389469418     -0.8604829087
C     0.4834593323     3.3454026399     -1.0119717578
C     1.5394967337     2.5197469452     -1.5706057912
C     -0.9034566229     2.9381036024     -1.2380430177
C     1.8726787094     0.3763586971     -2.7164432904
C     1.2619203156     1.7083307792     -2.6220220693
C     0.7105279261     -1.6599863232     -3.3601353481
C     1.0546386494     -0.3486263316     -3.6091414303
C     -1.1947233603     -2.6082483953     -2.4078927016
C     -2.3611796518     -2.2263619605     -1.6852601827
C     -2.9851286335     -0.9997488304     -2.0083896624
C     -0.7608749943     -1.791116309     -3.4706104756
C     -2.3352956745     1.2229237887     -2.1929223828
C     -1.2275275867     2.0879548228     -2.3459590046
C     -0.116566295     1.6230348433     -3.1824431757
C     -0.2022539217     0.417103121     -3.8541125725
C     -2.4007128322     -0.062877983     -2.8974548016
C     -1.3137054755     -0.4885918346     -3.7082199044


