56

 C     1.4688037494     -0.258492985     4.1644490082
C     0.6466590326     -1.3420889472     4.0476254261
C     1.1505007091     -2.2509898632     2.9869680948
C     2.5098740871     -0.3910222998     3.1307067188
C     2.3135806121     -1.6463008133     2.4022954466
C     2.4899153042     0.7731943686     2.3748208896
C     0.6678725433     0.9281605249     3.856050003
C     1.3252421499     1.6021743811     2.825874897
C     -0.7148624319     -0.9448171749     3.7462991471
C     -0.6972327952     0.5081469917     3.5739531671
C     0.058384803     -2.5246118967     2.155655809
C     -1.0937988135     -1.7073984218     2.625520616
C     0.2397985229     -2.7719503845     0.7666750475
C     2.4949464751     -1.707053725     0.9957316439
C     1.57913065     -2.567495957     0.2309693106
C     2.8713356787     0.7563034743     0.9852117355
C     3.0212387158     -0.5258458858     0.3074644157
C     2.4937626944     1.8887492015     0.2380051053
C     0.6053699622     2.3494236169     1.8485602492
C     1.3677456197     2.7082934943     0.6955516734
C     -1.4148919356     1.0823500269     2.5014740396
C     -0.8270458997     2.1778838375     1.7191587421
C     -2.0053212697     -1.205714274     1.6729000909
C     -2.3490464991     0.2092831581     1.7738696072
C     -0.9294454608     -2.6533778746     -0.090763529
C     -2.0833592815     -1.8780559197     0.38557617
C     -0.7207708612     -2.7442938966     -1.5010941429
C     1.7267210273     -2.5993445201     -1.1800344274
C     0.5840826272     -2.7947488968     -2.0073370869
C     3.020792284     -0.5165891009     -1.123712216
C     2.5388859107     -1.6243165736     -1.8360283164
C     2.4518763165     1.8689172955     -1.2200377437
C     2.673600134     0.6794447279     -1.891663503
C     0.7102619441     3.1838561881     -0.4487507436
C     1.3845260043     2.6973352383     -1.6555247686
C     -1.4868413872     2.6128643612     0.4833760533
C     -0.6799064765     3.1288936433     -0.5975871844
C     -3.1126394129     0.7634189257     0.7423170467
C     -2.7126832679     2.0077110168     0.1061436081
C     -2.983761175     -1.3278132591     -0.5685386497
C     -3.6234891284     -0.0895360216     -0.2920074767
C     -1.5225854153     -1.9494711835     -2.443721541
C     -2.6747561462     -1.3460667561     -2.0177132744
C     0.6594992143     -1.8673144419     -3.152496762
C     1.8311066686     -1.1429310073     -3.0306624085
C     1.7824126215     0.2853043021     -2.9842434251
C     -0.6036537611     -1.2448546177     -3.3338617049
C     0.4026128904     2.2444980142     -2.5396850919
C     -0.8964554572     2.6813565104     -1.9859857187
C     0.5394599006     0.9741282348     -3.2212327599
C     -0.6945002673     0.1901738893     -3.4490632373
C     -3.0770670306     1.9026929866     -1.295854151
C     -3.6989583637     0.6709081282     -1.5085500128
C     -2.9923100803     -0.0483351554     -2.5461788866
C     -2.0449924898     2.028907583     -2.3244775504
C     -1.9696237755     0.766457682     -3.0963974397


