56

 C     1.6095787697     -0.0125989664     3.8515155742
C     0.7673831837     -1.1694275609     3.7028991427
C     1.2400406589     -1.9627016432     2.6377753697
C     2.6060761412     -0.0490282656     2.8355228226
C     2.4096246819     -1.2389596911     2.0715131801
C     2.5072362115     1.1624164523     2.0579666653
C     0.7463282932     1.0685644413     3.5235107015
C     1.2859180266     1.8480903045     2.4687311286
C     -0.631161087     -0.7831144399     3.7154630498
C     -0.6406808604     0.6507623295     3.4672601634
C     -1.5506475621     -1.585370334     3.0424581161
C     0.3037075522     -2.6319858384     1.7683224252
C     -1.0909723793     -2.550138566     2.0338556709
C     0.684748208     -2.7882816179     0.4037592257
C     2.673191703     -1.2646789789     0.6714639146
C     1.9034275982     -2.1768604347     -0.1058812905
C     2.9418282863     1.2193200171     0.7206526049
C     3.1703070532     -0.042971328     0.0002728646
C     2.4186312394     2.3271605539     -0.0136798226
C     0.4300637759     2.4273413461     1.4790850212
C     1.0851902881     2.8240551329     0.3009944351
C     -1.5361456972     1.2199610688     2.506290132
C     -1.0110400742     2.0964047885     1.4409021207
C     -2.7150710073     -0.9676547097     2.5456604313
C     -2.7138821071     0.4214459533     2.2416424906
C     -2.0593477252     -2.5463619418     0.9466997683
C     -3.1325373952     -1.6794859153     1.3332906947
C     -0.270240951     -2.8497851053     -0.660851506
C     -1.6637908092     -2.5989296543     -0.4333069524
C     1.7576564475     -2.0241916065     -1.5249078645
C     0.3944348665     -2.4307580878     -1.877862432
C     3.1426514392     -0.0007575677     -1.4162716049
C     2.3940373929     -0.990200834     -2.1850343661
C     2.566421845     2.3873407234     -1.416056276
C     2.9542570041     1.2435516724     -2.1061453676
C     0.3902228501     3.0087312539     -0.9600717458
C     1.3155220634     2.8670780213     -2.0144411187
C     -1.6875330201     2.1599755353     0.1528223219
C     -0.9756601528     2.5568615188     -1.0754487379
C     -3.3974997566     0.5688317369     0.9924226738
C     -3.6662203784     -0.7742278091     0.4336400222
C     -2.883136935     1.355579369     -0.0248451859
C     -2.3759936811     -1.7762299904     -1.4300660597
C     -3.298927787     -0.7856747721     -0.9305207388
C     -3.0719666556     0.6073798503     -1.2837861116
C     -0.2916204622     -1.7829187343     -2.8819398486
C     -1.690959025     -1.4189477627     -2.6405408684
C     1.7005313811     -0.3159456795     -3.2991983602
C     2.0423919027     1.0508174002     -3.2443782918
C     1.0131431886     2.0515953634     -3.1458739134
C     0.3728566457     -0.6999132182     -3.6255088007
C     -1.3387090986     1.9926720535     -2.3414923221
C     -2.3500371478     0.9304435984     -2.3954844268
C     -1.8498076746     -0.1307649553     -3.2071535328
C     -0.3347645729     1.6629368535     -3.3341871091
C     -0.5990546451     0.3195486205     -3.7714580666


