56

 C     1.3935870514     -0.3059412211     4.5797003869
C     0.5776420241     -1.4219626592     4.2795216597
C     1.1465011067     -2.1854790482     3.2267566007
C     2.4860793245     -0.3297141822     3.6281381255
C     2.3426105595     -1.4946847959     2.7679181962
C     2.5698715303     0.9325124413     2.9876845308
C     0.6150071499     0.8701882155     4.2200458361
C     1.3842799143     1.7196730277     3.3986928284
C     -0.7038045877     -0.9665851911     3.7596290865
C     -0.7049855585     0.4655191535     3.7265776711
C     0.1134873431     -2.5108711468     2.2560802876
C     -1.0792368194     -1.7277894501     2.5955558022
C     0.4324874687     -2.7081688679     0.9326762932
C     2.5399146838     -1.4027473503     1.3723544627
C     1.8024768034     -2.3430031517     0.5258392567
C     2.6662378493     1.0365650984     1.5877707804
C     2.8065224937     -0.1067958002     0.7449354587
C     0.8194073261     2.280984208     2.2375362782
C     1.7202209083     2.0537595438     1.1164246116
C     -1.2941668638     1.0984802226     2.6069894933
C     -0.5820559806     2.180322582     1.9377796832
C     -1.8389113118     -1.1426081255     1.5793075466
C     -2.1371783813     0.2776780613     1.7263011779
C     -0.645262518     -2.5765936727     -0.0745128232
C     -1.7818762896     -1.7016205189     0.2136621552
C     -0.3104257968     -2.8307471822     -1.4046843412
C     2.071174274     -2.31468251     -0.8225702708
C     1.135740866     -2.8860551574     -1.7532726117
C     2.5920105373     0.0811300694     -0.6789109923
C     2.6034191279     -1.0983599303     -1.4735263696
C     1.3013282873     2.1522177991     -0.2041109479
C     1.8798413937     1.2503491061     -1.1973292091
C     -0.9953999515     2.6152389828     0.6440816212
C     -0.0140024081     2.7578054937     -0.4367657465
C     -2.7156612803     0.9063975075     0.645800268
C     -2.3235909426     2.2474205989     0.2431347066
C     -2.4853519895     -1.0690663224     -0.8689293924
C     -3.1311373266     0.1992046897     -0.567898201
C     -0.997263832     -2.203026095     -2.495378933
C     -2.0743503539     -1.2973205305     -2.2715721847
C     1.3186370966     -2.3224621739     -3.0004916342
C     2.1366371226     -1.1099710544     -2.8068555408
C     0.0397019784     -1.8753461187     -3.4688531276
C     1.2884839399     1.201843853     -2.5196289706
C     1.3970128207     -0.0077786201     -3.2960125639
C     0.1467742977     -0.5442648185     -3.9170369694
C     -0.4709574632     2.8476229919     -1.7619490608
C     0.1575455874     2.0563108853     -2.8087410362
C     -2.7910516309     2.4512877056     -1.0553855084
C     -3.3634526455     1.1644660154     -1.5548957061
C     -1.896434866     2.867026319     -2.0546902844
C     -2.2115411044     -0.2209474794     -3.2291945693
C     -1.0038036858     0.2225278399     -3.9298172624
C     -0.8895400058     1.6456363778     -3.7220483138
C     -2.9084999008     0.9818712486     -2.8869658075
C     -2.1346973525     2.1405531365     -3.2788664161


