56

 C     1.5071477652     -0.0655613234     4.1536943339
C     0.6931073038     -1.1987554598     4.2732309916
C     1.1666879501     -2.1946585012     3.3920733369
C     2.4887724609     -0.342953593     3.0695960014
C     2.3104914827     -1.6947165305     2.6207685674
C     2.4350637016     0.686936768     2.1222772343
C     0.7075403806     1.0057847705     3.6961279598
C     1.3611085076     1.6277267325     2.582942561
C     -0.6728188425     -0.8403636614     3.7978325024
C     -0.6774086954     0.5485686579     3.4986753665
C     0.0317827872     -2.7177698352     2.6694540454
C     -1.0912760889     -1.7506080934     2.8027665216
C     0.2594994007     -3.2656806606     1.4575219168
C     2.4048951276     -2.0001598537     1.2387504117
C     1.5709207104     -3.1025667473     0.7967307476
C     2.5498118364     0.4387307408     0.7196120311
C     2.6387976773     -0.9369499302     0.250553083
C     2.0963279986     1.510408811     -0.1747072558
C     0.61733811     2.3262951111     1.6679277316
C     1.1979108975     2.5633152514     0.3363392589
C     -1.3770064892     1.0099782213     2.3741285345
C     -0.851529084     2.2249004598     1.7596368988
C     -1.7845405019     -1.3175424195     1.6154215102
C     -2.0692968636     0.0958058255     1.4783850257
C     -0.7645893728     -3.2258904003     0.4076270638
C     -1.7076269922     -2.1483335952     0.3944905239
C     1.355053765     -3.3441071547     -0.5415901577
C     -0.0915058646     -3.6068437214     -0.771672448
C     2.3835331084     -1.2018457663     -1.1752483595
C     1.8121844662     -2.4729322738     -1.5766074464
C     2.0517295161     1.2643031198     -1.5533091348
C     2.1270993337     -0.0982645537     -2.0387415769
C     1.2080063603     2.0454734266     -2.450793744
C     0.4603043927     3.3570903847     -0.5346965369
C     0.4866431817     3.1430502588     -1.9826780836
C     -1.5941507186     2.8102096698     0.774685037
C     -0.9380148604     3.6694623463     -0.1879804127
C     -2.6110780156     0.6273817544     0.2225630476
C     -2.6381583996     2.048483734     0.0680344673
C     -2.0828476532     -1.5792914804     -0.9099176417
C     -2.6103747134     -0.2132775518     -0.9799610401
C     -0.4245130824     -3.0756125534     -1.9910659272
C     0.7970958575     -2.4941183081     -2.5879284572
C     -1.4657711068     -2.1145245838     -2.0988574186
C     1.2013675919     -0.1818209226     -3.1536658143
C     0.603956519     1.1055874754     -3.3831124982
C     0.422928202     -1.3520281489     -3.2938073878
C     -1.0370695713     -1.1998616519     -3.1488026207
C     -2.5858808249     0.4606435606     -2.2572129219
C     -0.7930676156     1.1988594824     -3.6226983412
C     -1.6029020411     0.0302672806     -3.2541478868
C     -0.8612428176     3.3686320717     -2.4816910967
C     -1.6997664617     3.6898290186     -1.3387582976
C     -2.7549454792     2.6663751174     -1.2162035881
C     -1.4986228423     2.3435981118     -3.1855175831
C     -2.6611013642     1.8693411327     -2.3504730445


