56

 C     1.54973692     -0.2170855716     4.162111288
C     0.765471218     -1.345180522     4.1696840611
C     1.2698796826     -2.3590668746     3.2805966181
C     2.552609074     -0.4139797401     3.1034099432
C     2.3515393257     -1.7395551028     2.5294027891
C     2.4284090523     0.6583950788     2.2182291589
C     0.6934509513     0.8869456152     3.7571245555
C     1.3113563634     1.5334713181     2.6914911804
C     -0.6292037657     -1.0131765977     3.781247839
C     -0.681070454     0.3931541088     3.5231828321
C     0.1505540023     -2.8253905835     2.5433885343
C     -1.023639507     -1.910374066     2.7845138142
C     0.3571388342     -3.2940471748     1.2697712745
C     2.4365383274     -1.9325043407     1.1142532703
C     1.5926153138     -2.9671967158     0.5858000874
C     2.6010394639     0.5369387032     0.7966901576
C     2.6636090448     -0.7878244513     0.216825494
C     2.2202547057     1.6889248626     0.0002444977
C     0.5510607804     2.2621106927     1.7575834384
C     1.2145540413     2.6649423667     0.535942885
C     -1.4011880404     0.8666489115     2.413271268
C     -0.8846363625     2.0729723865     1.7589666271
C     -1.8241891765     -1.4789303477     1.672625349
C     -2.1375728834     -0.0700462149     1.5592710423
C     -0.7056722953     -3.249603722     0.2708873908
C     -1.8120015532     -2.3173028404     0.4516416001
C     1.3098547125     -3.0742968342     -0.8029354655
C     -0.1077304257     -3.3919339915     -0.9899489818
C     2.3543182254     -0.9129443687     -1.2162740023
C     1.6429549417     -2.0756718949     -1.7071667903
C     2.3079812368     1.5650172089     -1.4009802284
C     2.2198592976     0.249020564     -1.9850881281
C     1.5863987603     2.4543346011     -2.2667071272
C     0.4638513569     3.4594229733     -0.3507667677
C     0.7055360096     3.3936912988     -1.7756093046
C     -1.6038091426     2.6205019932     0.6870935708
C     -0.9712890887     3.4942807711     -0.2062041453
C     -2.7411014865     0.4347953919     0.3182155249
C     -2.5894364045     1.8028976018     -0.0454947778
C     -2.4101555802     -1.8320026618     -0.7185392275
C     -2.9902662207     -0.4862649114     -0.7548614635
C     -0.5775020474     -2.7064673778     -2.1290191447
C     0.5119016815     -1.922281304     -2.6638992986
C     -1.8570075731     -2.1152337386     -2.0501552288
C     1.2723138324     0.3356701139     -3.1289738466
C     0.9304050107     1.6702163102     -3.3069917565
C     0.2781044203     -0.6979590996     -3.320976203
C     -0.5741183314     3.261871962     -2.4892803369
C     -1.5697326441     3.2929876621     -1.5221574728
C     -2.5584611808     2.2447388182     -1.4218045354
C     -0.4584525834     2.1297499257     -3.39985476
C     -2.9400665923     -0.0331048974     -2.0901762951
C     -2.1056010262     -0.9862479432     -2.8428645843
C     -1.0980065489     -0.2602272828     -3.5084312327
C     -2.5865451475     1.2747843533     -2.4461756294
C     -1.454840505     1.1674156179     -3.4121293669


