56

 C     1.4066901472     0.0161179002     4.1576791478
C     0.6075458694     -1.1763892698     3.9480599936
C     1.3301202903     -2.1036874913     3.1821847597
C     2.533916847     -0.0895774054     3.2480413435
C     2.5563445531     -1.3748858902     2.6979982603
C     2.5226843143     1.0011022744     2.3044778299
C     0.6365173477     1.0803667216     3.6573014557
C     1.3455829248     1.7823497841     2.6142618562
C     -0.6965186336     -0.8130910585     3.4515049776
C     -0.6778858265     0.6327756636     3.2716614688
C     -1.3588820111     -1.6162799447     2.4792261659
C     0.7654909224     -2.7758147861     2.0848076477
C     -0.6320358203     -2.6561992422     1.7447364238
C     2.6888538461     -1.616563457     1.3096949551
C     1.7378646903     -2.6725343989     0.9921434008
C     2.8647262155     0.7872596079     0.9197705164
C     2.9048086295     -0.5572532272     0.3571455702
C     2.4902454569     1.8269314686     0.0565455522
C     0.6639920598     2.5087463087     1.6068612718
C     1.4860899312     2.8135809398     0.4859995518
C     -1.3980143236     1.2782891338     2.2109501766
C     -0.7653757346     2.3352302045     1.3843981165
C     -2.4184636975     -0.9426259555     1.7995703989
C     -2.4215504397     0.5083850218     1.6424847366
C     -2.9408817725     -1.4696621548     0.615041297
C     -1.027980904     -2.9827949411     0.3669680485
C     -2.2556088418     -2.4335313014     -0.1605320182
C     1.3731942377     -2.884180587     -0.2970956633
C     -0.0054012205     -3.2361850627     -0.6112520495
C     2.4948182525     -0.7633182094     -1.0399567535
C     1.8863206734     -2.0189167073     -1.3522336077
C     2.3737083256     1.6720102499     -1.3672201717
C     2.2085629816     0.3716056944     -1.9370161997
C     0.9214794173     3.3745972687     -0.641726615
C     1.582337563     2.7827764572     -1.8294134203
C     -1.3338746975     2.6930321923     0.0909977039
C     -0.4790865672     3.376390858     -0.858280558
C     -2.9882803976     0.8351788223     0.3411178136
C     -3.4035873047     -0.3849292477     -0.241811748
C     -2.4463357526     1.8783930037     -0.4621731604
C     -2.4029915896     -2.0152222874     -1.5610559214
C     -3.1089834394     -0.7187046927     -1.5734520477
C     -0.1901392568     -2.8831402646     -1.9661977026
C     0.9558908732     -2.1231386575     -2.4066497337
C     -1.3487723585     -2.2057080978     -2.4463461585
C     1.2295122584     0.241384068     -3.0525724787
C     0.5447877527     -1.0127410587     -3.190922958
C     -0.8990811676     -1.1077726034     -3.3216158027
C     0.6649772844     2.6727985852     -2.8261464986
C     -0.6344033879     3.1678512486     -2.2921018657
C     0.4589666614     1.3915782079     -3.4729744631
C     -2.5175855479     1.6446337105     -1.8893436501
C     -2.7159734232     0.3168510985     -2.423599893
C     -1.6427196824     0.0713355407     -3.4114308112
C     -1.5751549447     2.2989448876     -2.7597074926
C     -0.9504615537     1.2743510975     -3.6288009978


