56

 C     1.4750900364     0.0026009364     4.0885163722
C     0.7016797439     -1.17433427     3.9560784012
C     1.36737305     -2.0351947759     3.0080408034
C     2.5414651888     -0.0209759027     3.1502172643
C     2.4348388741     -1.2472931293     2.3826693226
C     2.5619780296     1.2423444864     2.4749590008
C     0.6534495609     1.159414047     3.8095315141
C     1.3740829701     2.010074147     2.9269857563
C     -0.6538693803     -0.7601252705     3.6662308084
C     -0.6559727568     0.6991070418     3.4505232869
C     -1.4366987285     -1.5556051664     2.852491108
C     0.5845250589     -2.8526115284     2.2079305261
C     -0.8539770514     -2.75075479     2.3296622966
C     0.8624335325     -3.0181895313     0.7898627549
C     2.5467110343     -1.2194584551     0.9560837941
C     1.7600396367     -2.1489586328     0.1145849662
C     2.8789014807     1.2642123469     1.1252114312
C     2.9144531405     0.0287500653     0.3484679372
C     2.3411525965     2.2981074192     0.2664594834
C     0.6518020419     2.7207031532     1.9827002819
C     1.2481359891     3.0550715926     0.703431172
C     -1.3357801523     1.2418345576     2.308771964
C     -0.7337811174     2.3898378145     1.7133448542
C     -2.2633698272     -0.9880368812     1.7660011877
C     -2.171620607     0.3724163197     1.4227835989
C     -1.4556586792     -3.0379909099     1.0772051457
C     -0.4131470713     -3.3656189156     0.1585441675
C     -2.3681446567     -1.9960965317     0.7288261482
C     -0.6276337152     -3.0973531589     -1.1578967959
C     1.5149408619     -1.8361168113     -1.3202418708
C     0.4396469172     -2.5183808703     -1.9744883297
C     2.5784181362     0.3444530534     -1.0060979015
C     2.3506319856     1.7797909067     -1.090498361
C     1.9047300065     -0.5537364266     -1.8974783849
C     1.5105456418     2.2931714055     -2.0487920972
C     0.1796916479     3.3012000412     -0.2282097987
C     -1.0301980259     2.7606423814     0.3586292945
C     0.4026986451     3.1631483217     -1.599352554
C     -2.4741043358     0.7686814649     0.019917095
C     -1.9826627904     2.0626817336     -0.4521254354
C     -2.5768213673     -1.656049665     -0.6284087692
C     -1.8769948389     -2.4852621131     -1.5849019631
C     -2.8163488065     -0.2534088042     -0.9716134596
C     -0.1745564073     -1.9871296811     -3.1178234167
C     -1.6539304553     -2.0271019425     -2.8955701183
C     1.2003944983     0.030430606     -3.0712160623
C     1.0320546388     1.4653584094     -3.1322369137
C     0.1591861284     -0.756157169     -3.7101129316
C     -0.6863953421     2.891823512     -2.4232743717
C     -1.8998897926     2.327100671     -1.8696525051
C     -0.2480433925     2.0122325227     -3.4968086658
C     -2.7781972488     0.0876798657     -2.3858534958
C     -2.1879977723     -0.8550392225     -3.3512969683
C     -1.1220912374     -0.1414975887     -4.0717122252
C     -2.3673657191     1.3624651637     -2.7947277054
C     -1.325799787     1.2031441575     -3.8642706263


