56

 C     1.4082016894     -0.1876999514     3.7271617721
C     2.570086184     -0.3796347354     2.9868363468
C     2.4620251978     -1.6547839242     2.277424419
C     0.5272402712     -1.3421842775     3.5133583562
C     1.1987662222     -2.2489037173     2.6291203953
C     -0.7665680325     -0.877965849     3.2175936275
C     0.6287335699     1.0140159357     3.5957793076
C     -0.7555930746     0.5883264694     3.3421786046
C     1.1625947809     2.0893122353     2.8873358015
C     3.0178695276     0.6264578517     2.0694495856
C     2.4241108659     1.9047605541     2.1433378307
C     2.783290424     -1.4277715308     0.9299790588
C     3.1869022873     -0.014579293     0.7742403492
C     2.0758554342     -2.1025716146     -0.1256482662
C     0.4508858626     -2.8426569906     1.6175058281
C     0.9867388601     -2.9336813322     0.2713211868
C     -1.5782646498     -1.5232471597     2.2048570464
C     -0.972181234     -2.6076239464     1.5074145681
C     -2.5789372224     -0.7268932005     1.4835225099
C     -1.5743332479     1.3345308594     2.5196132611
C     -2.5367875402     0.6936466438     1.6368495164
C     0.2742902446     2.9040895386     2.0452598326
C     -1.0619383693     2.52862046     1.8558362518
C     2.3034906325     2.6262828058     0.9335048963
C     0.9945589529     3.3081973684     0.8924030785
C     2.9170041249     0.6598843797     -0.4339273662
C     2.5490088503     2.0584360542     -0.3219536228
C     2.0527413917     -1.508955918     -1.4667921295
C     2.452840867     -0.1025810036     -1.6126003746
C     1.1238283531     -2.0623429236     -2.4080393972
C     -0.1221291334     -3.1664879337     -0.6162342207
C     -1.3560585784     -2.935483662     0.1457100609
C     -0.0347597473     -2.8277548405     -1.9435704471
C     -3.082324134     -1.2164973374     0.2290834077
C     -2.4439869896     -2.3479842617     -0.4564598834
C     -3.4689818917     -0.3191551147     -0.7869787909
C     -2.6871423548     1.5551881485     0.494978537
C     -1.6650658945     2.5869171837     0.545677484
C     -3.1149904487     1.04800802     -0.7276278851
C     0.4685739368     3.2371845597     -0.4007238735
C     1.5174052698     2.5996031756     -1.2130278881
C     -0.9101351789     2.8814669354     -0.6273351916
C     1.8409869637     0.6497642909     -2.6578747433
C     1.2038575133     1.9389896535     -2.3453764572
C     0.6576700458     -1.2961796242     -3.5109292641
C     0.9896151253     0.0417984753     -3.6031912092
C     -1.2370960185     -2.3505016857     -2.6540088485
C     -2.415006725     -2.0772378865     -1.9012887637
C     -3.0610223827     -0.8353766323     -2.0925873551
C     -0.8141659633     -1.4204741183     -3.6185660377
C     -2.4144409898     1.3980266263     -1.9715677229
C     -1.2683783542     2.2234436176     -1.9062465616
C     -0.1887379719     1.899884047     -2.8353843057
C     -0.275846908     0.8205956732     -3.7068096878
C     -2.4689679278     0.2183768142     -2.8449512606
C     -1.3753325155     -0.098597912     -3.6876313665


