56

 C     1.5046920943     -0.0678534382     3.9538324333
C     0.7114121639     -1.2057159283     3.9244149453
C     1.2704669117     -2.1489321848     2.9494592482
C     2.46366607     -0.1826226364     2.8691184344
C     2.2441793285     -1.4064907359     2.149389423
C     2.4636628858     1.0046913943     2.1252030482
C     0.6635816555     1.0540766983     3.5753892216
C     1.3079270292     1.7987112493     2.5786622572
C     -0.6848226722     -0.8056026295     3.7166278014
C     -0.6675383073     0.593929452     3.2918168198
C     -1.5330122151     -1.696565817     3.1149376129
C     0.4222766213     -3.0398962932     2.3477685818
C     -0.9986920494     -3.0020601871     2.7112982507
C     0.4859690553     -3.253366308     0.9021476023
C     2.1835193937     -1.4227858617     0.7023522902
C     1.2725953844     -2.3796478179     0.0561595123
C     2.7685678668     0.9903982262     0.7478812198
C     2.5918226203     -0.2271676515     -0.0318408588
C     2.5488641975     2.2525758968     0.1572703935
C     0.5609827368     2.5070621467     1.6140392321
C     1.3931239495     3.0465964723     0.6107298534
C     -1.3657221424     1.0156286009     2.0949154429
C     -0.8036008942     2.1055693469     1.3003720246
C     -2.4257484004     -1.252946778     2.0445748072
C     -2.2766464499     0.0587663873     1.4487224232
C     -1.7471697992     -3.4837053722     1.64702084
C     -0.8410928856     -3.6540390567     0.5247829644
C     -2.641174283     -2.4173376411     1.2310553845
C     -1.3931251141     -3.0465930599     -0.6107310332
C     -2.548861851     -2.2525751461     -0.1572730483
C     0.8036004254     -2.1055694171     -1.3003725176
C     -0.5609827174     -2.5070608939     -1.6140402581
C     2.2766489754     -0.0587689536     -1.4487226366
C     1.3657244139     -1.0156316223     -2.09491599
C     2.6411757722     2.4173342051     -1.2310573177
C     2.4257518755     1.2529437433     -2.044576519
C     0.8410887747     3.6540392593     -0.5247829042
C     1.7471659583     3.4837016915     -1.6470237044
C     -1.2725982493     2.3796491318     -0.0561577028
C     -0.4859734378     3.2533689115     -0.9021462838
C     -2.5918226527     0.2271673336     0.031840225
C     -2.7685668198     -0.9903972432     -0.7478823797
C     -2.1835226123     1.4227866719     -0.7023507457
C     -1.3079248518     -1.798710172     -2.5786637316
C     -2.4636632838     -1.0046887428     -2.1252036777
C     0.6675417229     -0.5939322513     -3.2918176403
C     -0.6635778371     -1.0540775803     -3.5753872361
C     1.5330135365     1.696562832     -3.1149385759
C     0.9986914087     3.002060504     -2.7113001675
C     -0.4222800866     3.0398966737     -2.3477678186
C     0.6848251335     0.8056005462     -3.7166273793
C     -2.2441829521     1.4064927124     -2.1493874266
C     -2.4636664067     0.1826247084     -2.8691146576
C     -1.5046876729     0.0678569321     -3.9538272882
C     -1.2704691091     2.1489333337     -2.9494569375
C     -0.7114122282     1.2057163189     -3.9244158463


