56

 C     1.5829314092     0.1098116483     4.0702470697
C     0.7752753562     -1.0961235746     4.0857159237
C     1.4535425706     -2.0769798287     3.3582337826
C     2.6847506762     -0.0934970151     3.1137044824
C     2.6358301598     -1.4182436986     2.7064215028
C     2.6138001692     0.9161193556     2.0855564561
C     0.796405369     1.115466364     3.5215865817
C     1.4783697231     1.7525210213     2.4168684214
C     -0.5796468534     -0.7580026617     3.6558801565
C     -0.5766909315     0.6418993432     3.2938318606
C     -1.273985216     -1.6293795733     2.8071525564
C     0.8099524409     -2.8731536148     2.375632107
C     -0.5914026083     -2.7765130655     2.2076262951
C     2.6427085598     -1.7876525313     1.3312634464
C     1.6210184544     -2.8062204695     1.1572426464
C     2.806894145     0.602705855     0.7057400624
C     2.8090037319     -0.8041396738     0.3037495668
C     2.3861670441     1.6148021843     -0.2486628145
C     0.7420591943     2.400335821     1.4278533907
C     1.4177069011     2.6359434503     0.157282995
C     -1.3169123649     1.150381524     2.2124040523
C     -0.7201991291     2.2452224132     1.438020768
C     -2.2045368831     -1.1077793026     1.8367145351
C     -2.2804846866     0.2741455136     1.5265400195
C     -1.1826162876     -3.0102223959     0.9175762622
C     -2.3078623268     -2.0900369196     0.7595635729
C     1.0380481058     -3.0276914949     -0.0873696068
C     -0.3908221365     -3.2756562701     -0.2092150477
C     2.3210320246     -1.1388046345     -1.0369301853
C     1.4449452385     -2.2546661549     -1.2165091413
C     2.4284693883     1.2637181279     -1.6342262892
C     2.2243651198     -0.1054604725     -1.9938154747
C     1.7224440553     2.0475584378     -2.6034262498
C     0.6775326299     3.3368361453     -0.8286038201
C     0.8999078389     3.0800225504     -2.2339963312
C     -1.4191048348     2.7194267855     0.3159841529
C     -0.7351238139     3.4362039853     -0.6833510504
C     -2.8410319307     0.6646056315     0.224188385
C     -2.5036615791     1.9326863874     -0.3171064087
C     -2.7649110986     -1.7393780292     -0.4808425885
C     -3.1911871122     -0.361098134     -0.7278060882
C     -0.7989396858     -2.8188871415     -1.5117065673
C     0.3277224514     -2.2154514364     -2.1695085794
C     -2.0721379173     -2.222744236     -1.6848863941
C     1.2415971027     -0.1576361845     -3.1051567121
C     0.9785897229     1.1477480919     -3.5045970145
C     0.1787610458     -1.1391210996     -3.0872664766
C     -0.4079695901     2.9139941402     -2.9274537683
C     -1.3786162995     3.1260467504     -1.9716699944
C     -2.4405310686     2.1791785168     -1.7355868293
C     -0.3682918031     1.6609030046     -3.6646108643
C     -3.0271546356     -0.1257015172     -2.1083145115
C     -2.2311628581     -1.237333121     -2.663556566
C     -1.1552905594     -0.6700254065     -3.3943191319
C     -2.5486300894     1.084937516     -2.6330132529
C     -1.4309263389     0.7643791029     -3.5490732927


