56

 C     1.3008594355     -0.0304787978     5.2032899632
C     0.4724595737     -1.1886836261     5.0752388754
C     1.1426024868     -2.1438273879     4.3117664114
C     2.5068327078     -0.2915753238     4.3655863257
C     2.4029595048     -1.6205958612     3.7999712101
C     2.6941861353     0.7759297566     3.479185854
C     0.6173175532     1.009328063     4.5158034508
C     1.501560141     1.693363735     3.6326640723
C     -0.7230915132     -0.8544176736     4.2665748559
C     -0.6570739721     0.5053044117     3.9220104195
C     0.3218715131     -2.5962719558     3.1900015039
C     -0.8975466047     -1.8294575398     3.1869538235
C     2.3720566024     -1.8003468681     2.3858168517
C     1.1244266308     -2.5464881207     2.0333492783
C     2.838740344     0.5701227064     2.0872578897
C     2.6958237088     -0.7379891973     1.4740558472
C     1.0808359867     2.0774169828     2.3740391514
C     2.0973071148     1.6261235917     1.4090287982
C     -1.0841411607     0.9428418627     2.6106596587
C     -0.3061597689     1.9340490464     1.9036667937
C     -1.4245922954     -1.4151399561     1.9591850872
C     -1.7561357607     -0.0042382677     1.7397000521
C     0.5080701614     -2.375631375     0.7823374816
C     -0.8818878784     -2.0380617783     0.7598818986
C     2.2219953585     -0.7929569475     0.0916819325
C     1.2621414525     -1.7869302651     -0.3252718784
C     1.8281862296     1.6050612726     0.0769027416
C     2.1467702292     0.4104094747     -0.7096494012
C     -0.5331520487     2.1726697479     0.5252789425
C     0.6266543237     2.324645673     -0.3573911221
C     -2.1353951564     0.3890256997     0.425048721
C     -1.6950062439     1.6365610464     -0.1518953663
C     -1.4848330587     -1.7505829032     -0.4894621442
C     -2.4010206457     -0.6546008953     -0.5660502067
C     0.6588712329     -1.752262824     -1.6143271263
C     -0.7645721698     -2.0892721327     -1.7090526269
C     1.7449907662     0.3692313538     -2.0680667154
C     1.1551033422     -0.8292446188     -2.618767486
C     0.4417870755     2.438456803     -1.6991437823
C     1.2321144735     1.6251520509     -2.6383154451
C     -1.9429310329     1.9432192658     -1.5600807989
C     -0.8738167358     2.5753256097     -2.3117686734
C     -2.9055582829     -0.3047455676     -1.8298383906
C     -2.809765446     1.0996625644     -2.3358043739
C     -1.446263988     -1.922511875     -2.9191515014
C     -2.6704062789     -1.1632607167     -2.9216595349
C     0.4913347694     -0.7706187465     -3.9030731733
C     -0.7190880652     -1.4542222243     -4.101792919
C     0.6224001558     1.7066702246     -3.8753461485
C     -0.7147970297     2.3926745476     -3.7053493155
C     0.3431203177     0.5281399067     -4.6255426073
C     -2.7528128427     1.0605500885     -3.7599971731
C     -2.6986385458     -0.3470758631     -4.1339743403
C     -1.5968969004     -0.6113158139     -4.9467623094
C     -1.6447310179     1.6716262055     -4.4640893729
C     -0.9330648432     0.6192434419     -5.2453139684


