56

 C     1.4181067823     0.1238173348     4.217712768
C     0.6008853166     -1.0397283992     3.9084709338
C     1.3676721894     -1.9705599785     3.2060781794
C     2.591485926     0.0340529453     3.3769371444
C     2.6157779367     -1.2426488075     2.7928424591
C     2.6659462942     1.1874030794     2.5040574374
C     0.7119982639     1.2563130026     3.7777422013
C     1.5518873266     2.0324569721     2.9033240245
C     -0.641008463     -0.5998164899     3.3081306372
C     -0.5599141346     0.8436932678     3.2030596822
C     -1.2357953689     -1.3229498773     2.2486100317
C     0.838959986     -2.6174158701     2.076926099
C     -0.5284035506     -2.4641887445     1.681118123
C     2.7506535512     -1.4151999641     1.4012462365
C     1.8337706328     -2.4827922828     1.0141359056
C     2.9447047296     1.0365594373     1.0938281233
C     2.9426639972     -0.2977396419     0.4927967595
C     2.5154000668     2.1239160062     0.2502567727
C     0.9289681734     2.8550718226     1.9692624392
C     1.6070968638     3.0929347817     0.7685336516
C     -1.165650997     1.5591675957     2.0926341659
C     -0.491226296     2.7077241855     1.6197930247
C     -2.1906309099     -0.599642564     1.3900410256
C     -2.0861816959     0.8377262661     1.2158911644
C     -2.8349357727     -1.3632525114     0.3998733369
C     -0.8923364045     -2.9131361897     0.3423451182
C     -2.1829328848     -2.5782377408     -0.1420757164
C     1.471748529     -2.6436634736     -0.2872910534
C     0.1340778607     -3.0949513963     -0.6388415429
C     2.5289161254     -0.4757593174     -0.902385578
C     1.9170462034     -1.7112150391     -1.2844910816
C     2.1856352778     1.9570196305     -1.14721159
C     2.2053432234     0.6828940229     -1.7582183017
C     0.6494881474     3.4392570918     -0.2625909966
C     -0.6394090076     3.1031631077     0.2275770084
C     1.0877978681     2.9049727034     -1.4795062846
C     -2.4596756242     1.4198402698     -0.0833151443
C     -1.6008152601     2.4856023828     -0.6367994685
C     -3.5250965866     -0.7221724788     -0.6639465757
C     -3.2001538997     0.6338043328     -0.9977664927
C     -2.463939295     -2.6056414549     -1.5293063286
C     -3.4074232272     -1.5374483022     -1.8331881164
C     -0.0929727458     -2.753757871     -2.0089178025
C     0.9920859017     -1.8444427042     -2.3954127276
C     -1.3979629545     -2.5331507891     -2.4775523764
C     1.3604207347     0.4949006344     -2.9242140627
C     0.7429323857     -0.770537904     -3.2309965812
C     0.1244200348     2.5800384335     -2.4209742078
C     -1.267136589     2.4382126467     -2.0222528122
C     0.3890496549     1.4816631152     -3.2831963242
C     -2.8905102971     0.6335173251     -2.4399967441
C     -2.911963193     -0.756150173     -2.8808744469
C     -1.6743473317     -1.3741800824     -3.3565686086
C     -0.6314098354     -0.5385475885     -3.748510725
C     -1.875791501     1.4468546108     -2.9164244317
C     -0.8273161675     0.8763506719     -3.7303983413


