56

 C     1.2299675719     0.1297346311     3.9064010054
C     2.4256804836     -0.0169329102     3.1816731674
C     2.4304043145     -1.3664370227     2.6117662182
C     0.3743457964     -1.0207403874     3.5424372882
C     1.122634415     -1.9354810682     2.7556530549
C     -0.9294220981     -0.5639762879     3.1765133187
C     0.4532476171     1.2545310863     3.7047574998
C     -0.953864351     0.8433884185     3.4573762828
C     0.7875130987     2.2423500197     2.7304629186
C     2.7538792811     0.8835036022     2.1265539878
C     1.9050854954     2.019552026     1.8389841295
C     3.0531064095     -1.3418314247     1.3513710013
C     3.2795885729     0.0678083752     1.0186781395
C     2.5745711425     -2.2202353259     0.3740129864
C     0.4855866798     -2.5867176889     1.6524346379
C     1.3374999499     -2.9536021079     0.5669035408
C     -1.5689711212     -1.0848446023     2.0015566434
C     -0.9250976798     -2.2461703876     1.3513352108
C     -2.4464388551     -0.1957336518     1.2375127799
C     -1.5058841398     1.7193551545     2.5509081783
C     -0.4690918512     2.727213002     2.2109116993
C     -2.4224920586     1.2486417686     1.5332084529
C     -0.554955183     3.3333696278     0.9802401355
C     1.7219706068     2.417639475     0.4267252971
C     0.5556915353     3.1373067001     0.032272369
C     3.0954883105     0.4531971215     -0.2912352492
C     2.3281404105     1.6446265843     -0.6122845351
C     2.648000716     -1.8710838139     -1.0311301908
C     2.8739095036     -0.5279417567     -1.3471747436
C     0.8049817999     -3.2635219549     -0.7316634655
C     1.6333662853     -2.6159068675     -1.7462998906
C     -1.423009922     -2.6583362223     0.1099830814
C     -0.581891923     -3.3043552813     -0.8991644832
C     -2.9077485335     -0.6285060512     -0.0785608891
C     -2.4707073256     -1.9018712542     -0.5771069122
C     -3.2308793616     0.3603185147     -1.0731989189
C     -2.6997205122     2.1967153852     0.5097219146
C     -1.7827060794     3.3028648672     0.273397613
C     -3.1542472266     1.7350386037     -0.7686101416
C     -0.0342747492     3.0020705551     -1.2728966867
C     -1.45494908     3.2118693611     -1.1177615825
C     -2.3610914403     2.3777144289     -1.7849429701
C     1.6907755919     1.4354160813     -1.8817181381
C     2.062742958     0.108817443     -2.3630890794
C     0.4394461034     2.0307634669     -2.2159512768
C     1.0292328726     -2.0612817241     -2.8821612022
C     1.1959320072     -0.6325609925     -3.1431022028
C     -1.1306688297     -2.9648500334     -2.1709810884
C     -2.3300015567     -2.1382697529     -1.9632667977
C     -0.3468548329     -2.3624833318     -3.1473389047
C     -2.7091077886     0.1974839147     -2.4358005078
C     -1.9263461034     1.389661668     -2.7189476751
C     -0.5305828662     1.237126169     -3.0051280653
C     -0.1187195903     -0.0690607896     -3.4948705754
C     -2.2905649312     -1.0451817281     -2.8822512549
C     -1.0324995191     -1.1301636418     -3.5771151248


