56

 C     1.3102118489     -0.3227951857     4.7800072872
C     0.5260593667     -1.4962471971     4.8615547313
C     1.229648232     -2.476999658     4.1256678223
C     2.5407969639     -0.5606435552     4.0049135289
C     2.4894716839     -1.9335558801     3.587925075
C     2.5990618553     0.4612513068     3.0155945209
C     0.5593883335     0.7090807139     4.1311093795
C     1.3363282938     1.2790521781     3.0878422568
C     -0.7299225545     -1.2274846745     4.1312021217
C     -0.74382855     0.1607625646     3.7651229866
C     0.4236580118     -2.9205020061     3.0286868429
C     -0.8311322977     -2.1737297577     3.0560683255
C     2.4982435512     -2.2349410337     2.1967039516
C     1.1813167235     -2.8664817852     1.8287456732
C     2.9907947642     0.1315888889     1.7195941777
C     2.93844087     -1.2686901525     1.2942956774
C     2.5707519979     0.9250090716     0.5967345507
C     0.717165484     1.7957578031     1.9144310567
C     1.4815720093     1.8455522375     0.668809885
C     -1.3314968521     0.5664234747     2.5498968474
C     -0.7201260047     1.6244643484     1.7435490635
C     -1.4197877721     -1.7947432512     1.8327470643
C     -1.967696349     -0.4597427331     1.7558115033
C     0.5527850601     -2.6006083454     0.5791150127
C     -0.8655515289     -2.2654806539     0.5620438068
C     2.4885446823     -1.2738402184     -0.0711074766
C     2.5477684123     0.0725117113     -0.5523950051
C     1.3377122467     -2.0022869912     -0.499882699
C     1.9676983815     0.459715596     -1.7558220644
C     0.8655593652     2.2654647286     -0.5620517921
C     1.419768376     1.7947049964     -1.8327454031
C     -1.3377125833     2.0022642514     0.4998959343
C     -0.5527972934     2.6006072789     -0.5791130226
C     -2.5477663954     -0.0725366585     0.5523857078
C     -2.4885393122     1.2738073305     0.0711150463
C     -1.4815622168     -1.8455694017     -0.6688326246
C     -2.5707426426     -0.925026862     -0.5967621646
C     0.7201254833     -1.6244859562     -1.7435535081
C     1.3315134388     -0.5664571396     -2.5499182091
C     -0.7171410215     -1.7957613652     -1.9144336012
C     0.743851049     -0.1608049561     -3.7651422577
C     0.8311005231     2.1736925739     -3.0560721995
C     0.7299067834     1.2274811883     -4.1311922879
C     -1.1813408733     2.8664971712     -1.8287048996
C     -0.4236960632     2.9204891163     -3.0286876618
C     -2.9384400267     1.268676919     -1.2942910685
C     -2.9907855524     -0.1315958968     -1.7196083335
C     -2.4982608478     2.2349549113     -2.1966715416
C     -1.3362983496     -1.2790313526     -3.0878723496
C     -0.5593566785     -0.7090978072     -4.1311108515
C     -2.5990379174     -0.46122129     -3.015617492
C     -0.5260730635     1.4962894571     -4.8615370456
C     -1.2296849305     2.4770954154     -4.1256691598
C     -2.489475094     1.9336085541     -3.5879066831
C     -1.310193499     0.3228668914     -4.7799594415
C     -2.5407975215     0.5606911061     -4.0049090237


