56

 C     1.2108606172     -0.0109126796     3.7367979176
C     2.3937302526     -0.1955188858     3.0509383052
C     2.3953525686     -1.5212659663     2.4369703595
C     0.3783372952     -1.1877801339     3.4759476376
C     1.0995592082     -2.0899627631     2.6080240783
C     -0.8635027642     -0.7324180251     3.0610441661
C     0.4285465636     1.1803903525     3.500115712
C     -0.8933246981     0.7604411031     3.1517991867
C     1.0182858353     2.2545882485     2.7860902254
C     2.8629661779     0.7641885942     2.0667842101
C     2.2494519432     1.9990563049     1.9942202842
C     2.9551757807     -1.3968402577     1.1437721114
C     3.1925051976     0.0150330606     0.8425562213
C     2.503212256     -2.2586462882     0.155039478
C     0.4441592311     -2.7306891527     1.4964594757
C     1.2887990782     -3.0343679067     0.3867169541
C     -1.6100004406     -1.4233127379     2.0342128184
C     -0.9861942806     -2.4662207001     1.2365190535
C     -2.7100244578     -0.6771801597     1.4998282538
C     -1.7018845125     1.5165413558     2.2541922392
C     -2.6721712246     0.8104951158     1.5027976207
C     0.1866853636     3.0513265669     1.9744432041
C     -1.1606635544     2.7050363078     1.6602627027
C     2.0740690588     2.6088275852     0.6812619185
C     0.8699556492     3.3604992875     0.7387392379
C     2.9359484054     0.5288007527     -0.4518041011
C     2.3968668128     1.9080840769     -0.5277648273
C     2.4978848171     -1.8266350899     -1.2154353311
C     2.6493389531     -0.4457862536     -1.5391746055
C     0.7292551287     -3.2787540934     -0.893450111
C     1.4973247514     -2.6147129534     -1.8838293001
C     -1.5560265651     -2.7577901432     -0.0991271078
C     -0.6608870654     -3.1096867186     -1.1712521555
C     -3.3561078483     -1.088777477     0.3454060957
C     -2.7592011924     -2.0931773682     -0.5099786365
C     -3.0889402024     1.2448919013     0.2172387219
C     -3.6596064081     0.0966982727     -0.4423541348
C     -1.3778031507     2.9580346614     0.2375709008
C     -0.0814303276     3.371334745     -0.3103187646
C     -2.2796581284     2.1900253795     -0.5291806416
C     1.613003429     2.2618629787     -1.6721385939
C     0.3275351747     2.9241081642     -1.5503373355
C     1.9040159472     0.0018390393     -2.6930274123
C     1.4578349006     1.3319281613     -2.7329808161
C     0.5984371768     -2.084099134     -2.8572793479
C     -0.7618685416     -2.5035845159     -2.49059829
C     0.8457683903     -0.8061744434     -3.3222052749
C     -2.9042941569     -1.6095996457     -1.8467862083
C     -3.3187898763     -0.197756971     -1.741055692
C     -1.8403688546     -1.6583634157     -2.7602483724
C     -1.9202627134     1.849152287     -1.943352666
C     -0.636286377     2.2570831551     -2.4323265776
C     0.109756065     1.410121496     -3.2804811669
C     -0.2941634844     0.0960409238     -3.5984152715
C     -2.4307369634     0.6282950662     -2.511598406
C     -1.5904242399     -0.284711044     -3.2692479623


