56

 C     1.3758173409     0.0779522584     4.2131101977
C     0.5780223004     -1.112950481     3.9482446292
C     1.3519270852     -1.9675159463     3.1612138167
C     2.5278236511     0.0547669465     3.2910039325
C     2.5331398187     -1.1775269618     2.6844143578
C     2.4415916175     1.1993715581     2.4022318486
C     0.6157337838     1.169662859     3.8359838692
C     1.3141714122     1.9796961805     2.8394853953
C     -0.7451094259     -0.7169901599     3.4636978631
C     -0.7506697132     0.7429623535     3.5181263246
C     -1.350806502     -1.3752340724     2.3611862521
C     0.8098343504     -2.6011099956     2.0437926451
C     -0.5944414971     -2.4759807804     1.7412716401
C     2.6415587379     -1.366480119     1.2581787687
C     1.7336499168     -2.4261012817     0.9190460264
C     2.7092611596     1.0683752349     0.9811454534
C     2.788795747     -0.2754606922     0.3621922725
C     2.2322185694     2.1253699467     0.1861221341
C     0.577453656     2.7731352207     1.9240739028
C     1.2286928287     3.0530326944     0.6812424887
C     -1.4469079866     1.4568590154     2.5795815207
C     -0.8543398233     2.6178531193     1.8820811715
C     -2.2699607428     -0.6140426906     1.4736504829
C     -2.3265135555     0.7888668419     1.6523627084
C     -2.6568742843     -1.1385044118     0.157054954
C     -0.9495552097     -2.9228669714     0.4662446687
C     -2.1227384275     -2.4100442279     -0.2535531959
C     1.3401673165     -2.6700830559     -0.3945318269
C     0.0425615039     -3.2824967714     -0.519740468
C     2.3954201225     -0.4850240987     -1.0414194186
C     1.8350923611     -1.7774676286     -1.44897458
C     2.047435943     1.9745453236     -1.2509338968
C     2.1155167316     0.6856366194     -1.8699370928
C     0.4725260862     3.4565469127     -0.4381819147
C     1.0505814448     2.8978388118     -1.6503075338
C     -1.5750463304     2.7981768839     0.6717209312
C     -2.5130391172     1.6832333097     0.5319237647
C     -0.9306696727     3.288405771     -0.4932318568
C     -2.9900804648     -0.2352797738     -0.9050948691
C     -2.8335409412     1.1858563806     -0.7134451222
C     -2.6937205048     -0.525305965     -2.3039505612
C     -1.9712719422     -2.7294614522     -1.6080611683
C     -0.6018882735     -3.2811331825     -1.7745639146
C     -2.2016904558     -1.7996837071     -2.6635543772
C     1.1979072277     -1.8983838851     -2.7313004694
C     -0.0182148611     -2.7014467083     -2.8725632512
C     -1.0486362256     -1.8782308582     -3.5493129964
C     1.3260904925     0.5322092299     -3.0706171439
C     0.9873253326     -0.748379976     -3.5208025304
C     -0.4300909795     -0.7244414987     -3.9651290199
C     0.0036064935     2.5363443415     -2.5318268963
C     -1.2619168929     2.736114334     -1.8105936791
C     -2.2365534963     1.7522803837     -1.9259740832
C     -2.1247842824     0.6787237688     -2.8989181539
C     0.1779865879     1.4208265255     -3.3389760424
C     -0.9528479709     0.582984558     -3.6848879173


