56

 C     1.4414575226     0.1749383915     4.1164095632
C     0.6616411844     -1.0201295142     3.8321948231
C     1.4676210879     -1.9062788851     3.1434780506
C     2.6392901682     0.1273631718     3.235648085
C     2.7016591612     -1.1652469465     2.7114950914
C     2.6044171911     1.246880443     2.3459886315
C     0.689472456     1.2563050217     3.7319572892
C     1.4832997422     2.0669685142     2.8224980747
C     -0.6349225499     -0.6242895925     3.2558308331
C     -0.6456185597     0.8089448551     3.2436843831
C     -1.212651314     -1.34110381     2.183206206
C     0.9580124321     -2.5982554921     2.0318486071
C     -0.4544947847     -2.5132325019     1.6881557449
C     2.8405613658     -1.3882429918     1.3330858887
C     1.9142320687     -2.4723327644     0.9706701595
C     2.7533763185     1.0849774147     0.915937284
C     2.9410936731     -0.2813793066     0.411631085
C     2.1476037517     2.0909673146     0.0181481122
C     0.8152612948     2.8617996018     1.9602027467
C     1.3270369983     3.1039844587     0.6286351436
C     -1.3085009763     1.5244037537     2.236593808
C     -0.6676431335     2.7769540791     1.8376915449
C     -2.1034242183     -0.6428137438     1.2435628346
C     -2.1311713921     0.8153500663     1.2561969278
C     -2.5923992818     -1.377648819     0.068075055
C     -0.7905339189     -3.0452439665     0.4577228557
C     -1.9945874855     -2.6613979155     -0.2467229219
C     1.5425734444     -2.7498033158     -0.3544388884
C     0.2486677053     -3.3639473274     -0.5373544834
C     2.575919344     -0.5644373432     -0.9353704851
C     2.0134725086     -1.862617355     -1.3600245529
C     1.8402650005     1.7582560288     -1.3871797778
C     2.0820811068     0.4188396015     -1.8216771402
C     0.7958621759     2.4479691002     -2.094847168
C     0.2606979134     3.7114267712     -0.0781676783
C     -1.0013121297     3.4007521449     0.6625661388
C     0.0187925209     3.4185441785     -1.3923732326
C     -2.5364361763     1.5407449081     0.0384806126
C     -1.9365336926     2.8353624038     -0.257133585
C     -1.4080016573     3.0863254426     -1.5657009583
C     -3.127487764     -0.6370345547     -1.0414241034
C     -2.9626739487     0.794809496     -1.0790077268
C     -2.9663142195     -1.1125512554     -2.3955342789
C     -1.8015376201     -3.059358376     -1.6006095181
C     -0.3632772707     -3.3243497085     -1.7801304559
C     -2.2134440313     -2.2537668268     -2.6534162689
C     1.2829035952     -1.6778819809     -2.5678191683
C     1.2449201627     -0.2510325415     -2.8199161911
C     0.1213806865     -2.4622272839     -2.8341262817
C     -1.0124775197     -1.8622758972     -3.4573440189
C     -0.142112511     1.7154619545     -2.9301982679
C     -1.5009783657     2.1344329983     -2.5695599987
C     -2.5026482222     1.1424390986     -2.4431234252
C     -2.3965953844     -0.0293399367     -3.1755111193
C     0.0822048121     0.3720844924     -3.3504714385
C     -1.087999245     -0.4690657627     -3.6524124565


