56

 C     1.4735475366     -0.0510050056     3.9233690749
C     0.677173624     -1.1904326867     3.8823491463
C     1.2947873828     -2.1058771495     2.9213736869
C     2.5679206022     -0.1710651861     2.9541829562
C     2.4452912005     -1.4070829333     2.2843709713
C     2.6385055772     1.0430329701     2.2173975809
C     0.7063289337     1.091084818     3.5395700226
C     1.4143458377     1.8088732157     2.5367606937
C     -0.6997627885     -0.7656557512     3.6362526029
C     -0.6541799475     0.6564081451     3.3012810574
C     -1.50698265     -1.5921837982     2.8790789837
C     0.482710137     -2.9084452768     2.1545880523
C     -0.9444944349     -2.8201374204     2.3271564037
C     0.7327607341     -3.081775422     0.7011490556
C     2.6461299461     -1.4817701928     0.8592273305
C     1.7893373227     -2.3817487884     0.0491667143
C     3.0397090719     0.9710417747     0.8945619366
C     3.1296949182     -0.3017388367     0.2265657841
C     2.5728572789     1.9546527168     -0.0581877459
C     0.7131642743     2.4696686795     1.5061075369
C     1.4538828254     2.7843449265     0.2654760934
C     -1.3707417625     1.1837287107     2.2032566719
C     -0.7343120464     2.2562406861     1.4286584802
C     -2.4163297034     -1.0382426796     1.8910637599
C     -2.371057071     0.3229797864     1.5235227309
C     -1.5329209625     -3.040785773     1.0752490124
C     -0.529459058     -3.2773409142     0.0565537248
C     -2.5631434764     -2.063708322     0.8424147253
C     -0.7781461456     -2.8548498209     -1.2832536516
C     1.5896718128     -2.0907870042     -1.3381064143
C     0.3337563915     -2.3548848792     -2.0161062942
C     2.9066141547     -0.0330593952     -1.1870355928
C     2.6934859996     1.3826357115     -1.3744506555
C     2.1986629218     -0.9406933625     -1.9672286719
C     1.8726125196     1.8467611252     -2.4232976453
C     0.7272966142     3.3292067623     -0.8291250164
C     1.0274401227     2.9426115211     -2.1788607103
C     -1.396231402     2.7073977295     0.2557119349
C     -0.7006834879     3.4041456752     -0.7431473875
C     -2.8733271413     0.6879761198     0.1800185022
C     -2.4739486681     1.9174691475     -0.3822671053
C     -2.8602863247     -1.7247514202     -0.4424758003
C     -2.0771262556     -2.2773167989     -1.5759775789
C     -3.2341040042     -0.354967096     -0.7540620555
C     -2.2077810421     -1.3515909965     -2.6020992693
C     -2.9849660091     -0.1884453278     -2.1294891882
C     0.1649846702     -1.358162615     -3.0577522961
C     1.3134382671     -0.4706625712     -3.0248605995
C     1.160572252     0.8875538189     -3.2833911368
C     -1.1068521168     -0.8446722119     -3.3620146964
C     -0.2326733289     2.7173422799     -2.8935865097
C     -1.2780004368     3.035453846     -2.0377777641
C     -2.3397932478     2.103510512     -1.8123754592
C     -2.4422981092     0.983341343     -2.6782772426
C     -0.1696863253     1.4363048707     -3.5601069772
C     -1.2873949829     0.6000727237     -3.5211217718


