56

 C     1.4790096271     -0.0815463502     4.3836921646
C     0.6500653858     -1.237775052     4.4397806896
C     1.1370177214     -2.1615144264     3.5130892732
C     2.4347433031     -0.2844666989     3.2695810228
C     2.2715421248     -1.5841445513     2.7500707221
C     2.4182413602     0.8203870136     2.3544865283
C     0.6874594965     0.9830542736     3.9314456008
C     1.4020679365     1.7230105303     2.91223107
C     -0.6778484308     -0.8518122492     3.8868967544
C     -0.6827018668     0.5393762244     3.61927149
C     0.0297453973     -2.7060127371     2.7534767944
C     -1.0954591934     -1.7478981527     2.8613977775
C     0.3137258372     -3.2290649729     1.5491594598
C     2.3621307162     -1.8178554894     1.3439729426
C     1.6312130022     -2.9782394919     0.8966083261
C     2.4778010486     0.6386875241     0.9359584227
C     2.5183388896     -0.7110613465     0.3888906524
C     1.9491495407     1.7238430282     0.0843803113
C     0.6561694593     2.4453831227     2.0514619126
C     1.1327153219     2.6816563956     0.7184805212
C     -1.3443879688     1.0369912181     2.4567620219
C     -0.8035985057     2.256007013     1.9236103326
C     -1.737250861     -1.2981851595     1.6627872056
C     -1.9651691419     0.1340037925     1.4829712729
C     -0.6899329569     -3.2255831147     0.4943594911
C     -1.6580951086     -2.1682162114     0.4637262148
C     1.4436509652     -3.1998711851     -0.4389335835
C     0.0200317944     -3.5885135044     -0.6738201604
C     2.1854610397     -0.9137690885     -1.0397870485
C     1.7939038692     -2.237005968     -1.4460569197
C     1.7643261593     1.5583791278     -1.3718759213
C     1.8032121972     0.2107594455     -1.9242865952
C     1.0503185361     2.5836830069     -2.0702520131
C     0.0253290319     3.2585566159     0.010919813
C     -1.1861689683     2.7491525557     0.6861323853
C     0.0913786841     3.4125307711     -1.3273776206
C     -2.3703614254     0.6563095707     0.1723198231
C     -2.1468013199     2.0713276556     -0.1387569395
C     -2.0599069858     -1.6502677754     -0.8359910382
C     -2.547135785     -0.2542175824     -0.9568997351
C     -0.3557801156     -3.1040800535     -1.8894367031
C     0.8114604055     -2.3849575927     -2.483842603
C     -1.4620795435     -2.2302616601     -2.0032573317
C     0.9826233531     -0.0396269825     -3.1182367496
C     0.3556655251     -1.3340184538     -3.2293292579
C     -1.1319771801     -1.3655081234     -3.1271700978
C     0.3962128085     2.3432637408     -3.3243319298
C     0.2586589442     1.0105256216     -3.7608823412
C     -1.1620709972     3.3671579414     -2.0511207086
C     -2.2567144762     2.5683286531     -1.4720935823
C     -0.9231832508     3.01495671     -3.3865382607
C     -2.6822973018     0.2975864723     -2.2714526505
C     -1.8635667358     -0.2654734796     -3.3707068402
C     -1.1924967889     0.8413037631     -4.0220523726
C     -2.6577905192     1.700396146     -2.5175042793
C     -1.8805740535     2.0242995185     -3.7459277086


