56

 C     1.495147524     0.0046047123     4.0482883082
C     0.7282579156     -1.2306377248     3.8057107855
C     1.5434279398     -2.0888087831     3.0896737953
C     2.6559169632     -0.0121018501     3.2147669839
C     2.7811726744     -1.3209128691     2.7037968381
C     2.577715157     1.1191401598     2.2963640781
C     0.6949486244     1.0997852666     3.7111905955
C     1.4392714315     1.9110904997     2.7592622698
C     -0.5445446255     -0.8561083044     3.2512922582
C     -0.5880757931     0.6152849564     3.272875664
C     -1.0867260014     -1.545715128     2.1311976652
C     1.0669508916     -2.7567627036     1.9401265367
C     -0.2853690495     -2.6046049702     1.495407535
C     2.987070257     -1.5405699738     1.3502382272
C     2.1288169679     -2.6825734685     0.9493339135
C     2.7573647416     0.9414905016     0.8941501346
C     3.0921853205     -0.4172299497     0.4110844672
C     2.0752254925     1.8714091721     -0.0416767218
C     0.7192506298     2.646073516     1.8656741274
C     1.1543686749     2.7996541071     0.5030368753
C     -1.3393978192     1.3462685659     2.3203558544
C     -0.7413882365     2.5432012391     1.8134108728
C     -2.1192605033     -0.8481274091     1.3387392062
C     -2.2881896026     0.62740694     1.4660955011
C     -2.5767394724     -1.4704919597     0.1704185926
C     -0.5625288359     -2.9710174039     0.1078942177
C     -1.7965021848     -2.5344572549     -0.4602412252
C     1.8813149049     -2.92033615     -0.3683954431
C     0.5206104434     -3.1905788569     -0.8043803868
C     2.8786753526     -0.7451767636     -0.9423601478
C     2.516842717     -2.0728395621     -1.3513105855
C     1.8549031689     1.4992971551     -1.4535187814
C     2.2520529285     0.199251869     -1.8852889
C     0.8159309548     2.1123921058     -2.2071498417
C     0.0186647911     3.2998120597     -0.2490088938
C     -1.1733777959     3.102893227     0.5861876919
C     -0.0725536153     3.0977720941     -1.6139643704
C     -2.8975222318     1.3584880277     0.4267568793
C     -2.3673387124     2.6535948686     0.0041785906
C     -3.2350971802     -0.7077621488     -0.8931569237
C     -3.3993280038     0.6903280552     -0.7773007204
C     -1.9264944959     -2.3610447789     -1.860391825
C     -2.7991957747     -1.2322763268     -2.1254119323
C     0.4282628192     -2.7023486559     -2.1724767548
C     1.6150071313     -1.944454741     -2.422673255
C     1.4846449407     -0.5535913139     -2.8138930007
C     -0.787034926     -2.2394391599     -2.683736739
C     0.0158370751     1.352153575     -3.1740296795
C     -2.2105157429     -0.3953144814     -3.1266000632
C     0.245893394     -0.0643209211     -3.3498753803
C     -0.8838051593     -0.9375863383     -3.3821395384
C     -1.372090871     2.9535891332     -2.2177011437
C     -2.4905866749     2.7217703792     -1.418235232
C     -3.1586860617     1.5063890991     -1.9045887449
C     -1.2959939843     1.8759654687     -3.1924520773
C     -2.427388483     0.9980831981     -3.0355501275


