56

 C     1.2803888894     -0.0104282213     3.65834911
C     2.4347919375     -0.2772342155     2.9500128528
C     2.4451745212     -1.7032722428     2.5662686367
C     0.450931737     -1.2430499487     3.6214896703
C     1.1833105988     -2.2707205226     2.9476806611
C     -0.8138671624     -0.8545401172     3.1806752872
C     0.4745433592     1.1203156717     3.3595161731
C     -0.8794678026     0.609644306     3.2737444484
C     0.905667501     2.0942820717     2.3923389741
C     2.7628655806     0.5118486042     1.8020774648
C     2.0464086728     1.7224963836     1.5382324557
C     2.8988149304     -1.7871310003     1.2382427757
C     3.089177235     -0.4171464275     0.7345218213
C     2.3297825251     -2.7558277437     0.3779081985
C     0.4894438129     -3.0630669666     2.0079144409
C     1.1907547948     -3.4655438216     0.8430503458
C     -1.4831623009     -1.5182018972     2.0548839395
C     -0.8473296665     -2.668729105     1.5530338224
C     -2.3737199136     -0.7252309838     1.1710179514
C     -1.8292432641     1.2891611935     2.5652624268
C     -2.6561438232     0.6083642225     1.5472666822
C     -0.1318028564     2.9068101899     1.8257267464
C     -1.489882554     2.5776012472     2.0611866834
C     -0.0727476875     3.4093243555     0.4497320551
C     2.0119068619     2.1225299668     0.1675182775
C     0.9779649426     3.0033258463     -0.354825109
C     2.841280894     -0.1065055889     -0.6206851118
C     2.4204683819     1.2400743683     -0.8816211718
C     2.1349253147     -2.4621273628     -1.0399999216
C     2.4265907742     -1.1730816202     -1.5645219315
C     0.2632685412     -3.5796029768     -0.2671393943
C     -0.9662074933     -3.0219894406     0.1263555806
C     0.9018584128     -3.1283735264     -1.4508758642
C     -2.5276632568     -1.1014363945     -0.2634852588
C     -1.7363814154     -2.2323878387     -0.7966651769
C     -2.9772633524     -0.1252000069     -1.1807795774
C     -2.996293057     1.618080305     0.5712154056
C     -2.2582357754     2.8101558223     0.8644584223
C     -1.426318036     3.4043848496     -0.119488688
C     -3.1795713693     1.2588524921     -0.7719444318
C     -1.63395832     3.0549194094     -1.4706689868
C     -2.644129212     2.1024945942     -1.7804226169
C     0.7669488932     2.6764292889     -1.7638108415
C     1.6873549055     1.5848415265     -2.085755161
C     -0.4945539081     2.7354903792     -2.3364924572
C     1.724425541     -0.7778901832     -2.7664721146
C     1.3610916886     0.6206691785     -3.0199561291
C     0.1013758125     -2.5845312151     -2.4443299797
C     -1.2775115291     -2.2037052446     -2.146565528
C     0.6532680418     -1.5566092853     -3.2527561623
C     -2.4843590284     -0.0959965769     -2.5658627153
C     -2.196989908     1.2628267519     -2.8821183383
C     -0.8915938953     1.6625084921     -3.2673373721
C     0.0314386269     0.6641191867     -3.6433458583
C     -1.6036948653     -1.0824946433     -3.016064523
C     -0.4141322851     -0.6794955653     -3.6956908482


