56

 C     1.4480359854     0.0377677599     4.2012402445
C     0.642794379     -1.1548486659     4.054239738
C     1.3487146441     -2.0751580146     3.2553212432
C     2.5888825638     -0.10938657     3.2951710688
C     2.5504323092     -1.3858855165     2.7324043276
C     2.6364933514     0.9963342696     2.3798436803
C     0.6861584368     1.0683060339     3.6308244828
C     1.4420053447     1.7767300184     2.6217105034
C     -0.6956271734     -0.7792640374     3.6180263765
C     -0.6655870294     0.6368827415     3.2896947262
C     -1.3803082402     -1.622218799     2.7549396426
C     0.7231884811     -2.7394219061     2.1684025053
C     -0.6716483055     -2.695413787     2.0566067799
C     2.571428312     -1.5779549181     1.3100371214
C     1.5048358922     -2.476109871     0.9492265664
C     3.0193735189     0.812010554     1.0240579756
C     2.9152448873     -0.5183144122     0.4184808945
C     2.7291411147     1.9312857166     0.1996159381
C     0.7677712225     2.4611725023     1.5864341175
C     1.5844206356     2.7945534108     0.4751141478
C     -1.3355571461     1.1600644978     2.1501086597
C     -0.6737277706     2.2341017344     1.3768988215
C     -2.3121508035     -1.0711832228     1.8091841262
C     -2.3203628074     0.313976418     1.4693124287
C     -1.2722878328     -2.8644336493     0.7782306849
C     -2.4617073055     -2.0487927858     0.7518480291
C     0.9071532927     -2.4653330543     -0.3392106676
C     -0.489862515     -2.9084415681     -0.4334483815
C     2.5035376419     -0.634758815     -0.9763589567
C     1.472509896     -1.5935794843     -1.3656012259
C     2.837821277     1.8056286612     -1.1857863948
C     2.7041807246     0.5307776713     -1.8014965251
C     1.0284147713     3.2282912194     -0.7767446202
C     1.8939097274     2.7491755456     -1.8225425696
C     -1.1894417708     2.5712804163     0.1162680246
C     -0.3639467327     3.1204111642     -0.9562353671
C     -2.8430252575     0.6895003158     0.1429032889
C     -2.309197698     1.8475031401     -0.4840900673
C     -3.0752233683     -1.7363521727     -0.4382385977
C     -3.3999952743     -0.322328961     -0.7255002178
C     -1.2012125312     -2.7083415606     -1.6428717862
C     -2.6031150299     -2.3702015471     -1.6214851361
C     0.6675809876     -1.3516447449     -2.5789174913
C     -0.5991442278     -1.95040847     -2.7236052933
C     1.8885595059     0.7466624528     -2.9665737384
C     1.372172948     2.1417833206     -2.937259417
C     0.8621069116     -0.1004215254     -3.3135359625
C     -0.9028898535     2.6277384307     -2.2046106152
C     -2.1546745934     1.924308945     -1.913963842
C     -0.0342161358     2.0887489797     -3.1763545514
C     -0.3172676295     0.74493649     -3.6740381697
C     -3.3196570949     -0.1845498096     -2.1290408991
C     -2.8587890386     -1.4676555647     -2.6958371488
C     -1.6925456109     -1.2163427197     -3.4008096175
C     -2.5818417455     0.8719803095     -2.7328282864
C     -1.5718582305     0.2168334537     -3.5991606078


