56

 C     1.2935983932     -0.1107598495     3.3814732202
C     2.3117356718     -0.280261951     2.432814642
C     2.1978517473     -1.640968554     1.8648962376
C     0.4530960914     -1.2816797652     3.3573834574
C     1.043280368     -2.239401823     2.464572756
C     -0.8685154291     -0.8702522974     3.1352182775
C     0.4502863245     1.0487518288     3.2977013174
C     -0.9023555976     0.6082174839     3.1332071313
C     0.9280914496     2.1879768494     2.6096404567
C     2.7839485433     0.8354211451     1.6274490286
C     2.1537221073     2.1005825134     1.7894184268
C     3.3210390398     0.5046343635     0.333464693
C     2.514753391     -1.8899559201     0.4862545312
C     3.1032942028     -0.8425958452     -0.2618471507
C     1.6937505885     -2.841097328     -0.2385770049
C     0.1919979933     -3.080896025     1.711735034
C     0.614824113     -3.4907787443     0.4405497405
C     -1.7674003011     -1.6457985572     2.2944561679
C     -1.2599219217     -2.8131066775     1.6589180256
C     -2.8119295963     -0.9104890001     1.6307095703
C     -1.8007890209     1.3207936491     2.2682639216
C     -2.7685780304     0.5757651081     1.5532005367
C     0.0022755014     2.9988365596     1.9402599817
C     -1.3259348515     2.5478796143     1.6576334396
C     1.9539753061     2.9811864344     0.6380515812
C     0.6123767382     3.4904102322     0.7244694188
C     3.2452760598     1.4320708399     -0.7072388973
C     2.4298228438     2.6126727542     -0.6184708743
C     2.7965893415     -0.6712806547     -1.6510648029
C     2.9179298041     0.7274332023     -1.9272169918
C     1.2261602299     -2.5439357348     -1.5600896648
C     1.720671333     -1.4230256719     -2.2686215819
C     -0.5367213686     -3.5507209034     -0.4325853594
C     -1.7071179125     -3.1779770796     0.3143391939
C     -0.2063696312     -2.9409513311     -1.6441908221
C     -3.3209307196     -1.3717590811     0.4153544941
C     -2.6766800184     -2.4158814484     -0.3339204412
C     -3.1644053422     0.964497969     0.2320081391
C     -3.5350288678     -0.2354900462     -0.4535935198
C     -1.5608762731     2.8107664799     0.2687365547
C     -0.3027396646     3.3468057497     -0.3199827733
C     -2.4346359078     1.9921874513     -0.4858966177
C     1.5309189271     2.6011311752     -1.7729606227
C     1.91154667     1.4354875502     -2.5969572254
C     0.1512413952     2.9099696586     -1.6143383369
C     0.8169327727     -0.7172191514     -3.1335883451
C     0.9219109395     0.7022137965     -3.291572213
C     -1.1677895801     -2.0995923672     -2.3075664654
C     -2.4247190706     -1.8886065147     -1.6753763131
C     -3.0316365526     -0.5425683951     -1.7244190805
C     -0.6267475075     -1.0377482027     -3.1418967034
C     -2.1124291285     1.7499694096     -1.8645143614
C     -0.8164727365     2.1882620659     -2.4261354053
C     -0.4052818719     1.2442786433     -3.3775053156
C     -2.4154780372     0.4884357324     -2.4707018627
C     -1.3414129478     0.1481606501     -3.3613512526


