56

 C     1.1466052126     -0.1594615728     4.0808081793
C     2.2645098476     -0.4066181954     3.310866373
C     2.1818695619     -1.753678025     2.7316969927
C     0.2922945945     -1.3831585804     3.9993205763
C     0.900828871     -2.3154941925     3.0778416405
C     -1.0002212748     -0.9488043279     3.7887341744
C     0.3263040791     0.9999054526     3.8131120197
C     -1.0298510522     0.5186181785     3.7374518451
C     0.7444620346     1.9068420727     2.8011524739
C     2.6753387437     0.4850188747     2.2497752682
C     1.9616185708     1.6525534249     2.0236458021
C     2.6467902394     -1.7130219239     1.4150989523
C     3.0317141194     -0.3231246675     1.0974525208
C     1.9636098281     -2.4707168637     0.3964931889
C     0.1123486184     -2.8254148958     2.0102592826
C     0.6630921562     -2.9764984875     0.6980544807
C     -1.7972157133     -1.4264402604     2.6813159648
C     -1.2755942874     -2.3880291963     1.8287165614
C     -1.9087484099     0.9217791077     2.729366934
C     -2.4652064129     -0.2842194594     2.083765038
C     -0.2014919115     2.4816236227     1.8940563537
C     -1.5575351128     2.0353699824     1.8838143302
C     1.7525118765     2.1316256808     0.6630807243
C     0.4551425196     2.7316750947     0.6059410081
C     2.9382066116     0.1654360323     -0.2089809516
C     2.2596368133     1.4622321022     -0.474277138
C     2.2068057555     -2.0982964108     -0.9328544706
C     2.8669644945     -0.8392090494     -1.2367003234
C     1.2479191038     -2.3364146208     -1.9934694738
C     -0.3999681336     -2.7908280358     -0.2961110595
C     -1.5630541871     -2.3347412892     0.4008159141
C     -0.1481876405     -2.4591319408     -1.6508370607
C     -2.8439564305     -0.2664812884     0.7382400988
C     -2.3766860785     -1.3367470061     -0.1830136912
C     -2.2532432907     2.148079854     0.672082932
C     -3.0556650001     1.0415101573     0.1770520237
C     -0.2545100664     2.890855472     -0.6105099896
C     -1.6897761866     2.8101202181     -0.4877771097
C     1.6516375511     1.7337446362     -1.7857161503
C     0.4025701169     2.4976193867     -1.8742820739
C     2.545448888     -0.4738213331     -2.5380258454
C     1.6256363626     -1.4971202593     -3.0657369887
C     1.9719869742     0.7944949719     -2.8514563449
C     0.676257102     -0.8922056486     -3.8599944428
C     1.0206748103     0.5594785609     -3.916336673
C     -1.1626006464     -1.6828056539     -2.3936645493
C     -2.2593456915     -1.0822329591     -1.6268655621
C     -0.7234124233     -1.0306562883     -3.6261877784
C     -3.2104013843     1.1867036828     -1.1960116954
C     -2.4560196037     2.3873578551     -1.597275153
C     -2.8562344867     0.1534896116     -2.1140300746
C     -0.4630153998     2.3026029214     -3.0361895018
C     -0.1452189372     1.2567661399     -3.9718894625
C     -1.2677554502     0.2580570223     -3.9626581388
C     -1.866348489     2.1680799071     -2.8229556031
C     -2.3015117563     0.8136824086     -3.2761943476


