56

 C     1.5573534734     -0.0759892036     4.2899759223
C     0.7114470881     -1.3019239116     4.2224822421
C     1.4586647277     -2.2951417606     3.5879159349
C     2.6339906253     -0.2781194706     3.3330074297
C     2.6708263152     -1.6163053788     2.9841381725
C     2.5110613813     0.7294939622     2.2605448392
C     0.7938469945     0.9597553091     3.7997627914
C     1.4197067446     1.5770089862     2.6131936929
C     -0.5800370398     -0.9602304152     3.6917164312
C     -0.5796497131     0.4982344369     3.6222978031
C     -1.1578569079     -1.6812479483     2.5618223392
C     0.8855199772     -3.0545506192     2.5655707333
C     -0.4132505415     -2.7794978111     2.0281713355
C     2.7784456077     -2.0109909849     1.6152642657
C     1.7976698904     -3.0278595737     1.424720924
C     2.7160022473     0.3973445437     0.8890685663
C     2.9355090614     -1.0187839284     0.5641370629
C     2.1152861833     1.2743446675     -0.1213953656
C     0.6162484841     2.2007286017     1.6308776203
C     1.066350381     2.2167677246     0.2486720173
C     -1.343124703     1.1446173821     2.7057531006
C     -0.8045063938     2.2019075629     1.8528662118
C     -2.0437070271     -0.966189476     1.6268609102
C     -2.2879600801     0.4095994451     1.8841970077
C     -2.2031862034     -1.4084335998     0.2166341883
C     -0.3467400543     -2.9643751245     0.5570831196
C     1.0560868159     -3.1425627935     0.2347371652
C     -1.188066319     -2.3127426986     -0.3521376941
C     2.5418162568     -1.4356997105     -0.730782628
C     1.560863322     -2.5174250285     -0.8906071754
C     2.1915696733     0.8800667337     -1.5187228005
C     2.3330957808     -0.5247081145     -1.7919222186
C     1.5315141511     1.6613581809     -2.4952075237
C     0.1743436471     2.7741262125     -0.7734340884
C     0.5735465792     2.6553270235     -2.137247899
C     -1.6920356254     2.368464634     0.7647577971
C     -2.6823056238     1.2865178259     0.845624625
C     -1.2669614783     2.8498677649     -0.497374551
C     -2.8970124166     -0.5949903096     -0.6868404372
C     -3.2166117463     0.771605883     -0.3212191303
C     -2.6533968051     -0.5857580096     -2.1507856164
C     -0.7118561892     -2.057581236     -1.7370829984
C     0.6891245773     -2.1642780679     -1.948217332
C     1.3618712635     -1.1236945642     -2.7050009859
C     -1.4719373949     -1.2044272156     -2.6668580715
C     1.0184748273     1.0291041461     -3.7271582673
C     0.6808780347     -0.3868997149     -3.6181427323
C     -0.7676206604     -0.5184184111     -3.7455821824
C     -0.4014664545     2.7277418546     -3.2434912545
C     -0.0653709842     1.7131401324     -4.2302074785
C     -1.208878319     0.756208575     -4.2424850448
C     -2.2015213202     2.6442543618     -1.5921487298
C     -3.1286131282     1.5673003624     -1.4780190318
C     -3.0287261447     0.7027758146     -2.6513257671
C     -1.7490159169     2.6276461696     -2.9473030444
C     -2.2896889209     1.3835067839     -3.6211442002


