56

 C     1.4538584109     0.0014260233     4.2964587203
C     0.6098671044     -1.1825851958     4.2035980377
C     1.2309611972     -2.130691433     3.3911999084
C     2.5290854566     -0.1520666958     3.3468613621
C     2.3961568756     -1.4311183964     2.7775582743
C     2.4844723627     0.9409290208     2.4010915838
C     0.6550797165     1.0501967661     3.7931622741
C     1.3288591367     1.7393984882     2.7332950055
C     -0.7616684148     -0.7865397312     3.8931644189
C     -0.7095713428     0.6293757926     3.5442284283
C     -1.5319377362     -1.6363239544     3.0957340142
C     0.5116720107     -2.7616094267     2.3287874618
C     -0.8800908945     -2.6714806339     2.2710404406
C     2.3542396755     -1.6526131302     1.3703755256
C     1.2550599897     -2.543906648     1.0883303631
C     2.8042298509     0.74935411     1.0166217888
C     2.6890058906     -0.6061515992     0.4327862553
C     2.4567424491     1.8193897101     0.190142587
C     0.6052289625     2.413905097     1.7145326948
C     1.4022250842     2.7499304851     0.595892179
C     -1.4462738016     1.1642913948     2.4210233267
C     -0.8166141466     2.1396899166     1.5021684833
C     -2.5380675313     -1.0483816243     2.2832415116
C     -2.4739831941     0.3201465201     1.8999006788
C     -1.535338716     -2.6727378586     0.9737702922
C     -2.6519777373     -1.7991997933     1.0611224551
C     0.6371188409     -2.5267609235     -0.1751161754
C     -0.809923726     -2.6819164757     -0.260670464
C     2.3060991143     -0.7667933005     -0.9311808172
C     1.3468012248     -1.8462043908     -1.2521481315
C     2.4183913628     1.6934895764     -1.2480263493
C     2.36636585     0.3890634963     -1.8468891986
C     0.8097649114     3.2004396648     -0.582708353
C     1.5530089272     2.702716645     -1.7391085039
C     -1.3636042781     2.3545159312     0.1641577512
C     -0.558929153     3.0042967512     -0.8361847195
C     -2.8587049612     0.4070194423     0.4921626238
C     -2.9869239306     -0.9422308295     -0.0112819749
C     -2.3932000654     1.4316139162     -0.3484200108
C     -1.4842742136     -2.2170997472     -1.4668231981
C     -2.591796528     -1.2669380642     -1.3187930455
C     0.7295456356     -1.8735029233     -2.5070769287
C     -0.6954319844     -2.1011445586     -2.6369490081
C     1.7526092906     0.3213700838     -3.1265194303
C     1.0923751844     -0.9106028577     -3.5388935284
C     0.6764991073     2.5027696443     -2.8176732074
C     -0.6818934273     2.7199792774     -2.2858107959
C     0.9376021167     1.397554722     -3.6599792479
C     -2.4882252895     1.1633542325     -1.7578741286
C     -2.6701272081     -0.1822595307     -2.2476214857
C     -1.6874423571     1.886714364     -2.7415853553
C     -1.1302775467     -1.3059589697     -3.7761002436
C     0.0302915262     -0.6762692939     -4.4056193421
C     -0.1688028153     0.7732112522     -4.3690146237
C     -2.0623240537     -0.29787597     -3.5266693279
C     -1.4458122329     1.0048215923     -3.8676708708


