56

 C     1.3594221085     -0.2160241585     4.2945109445
C     0.6095177811     -1.4280529731     4.0374002278
C     1.4081814403     -2.2678538645     3.2339978551
C     2.5673256264     -0.2829494303     3.5101801572
C     2.6459113036     -1.5693681441     2.9117425567
C     2.6355407938     0.8725269731     2.6416928187
C     0.587328083     0.8238967862     3.7166515979
C     1.3565330199     1.598177312     2.773164314
C     -0.702576922     -1.0773128122     3.5214009256
C     -0.7239175757     0.3721519594     3.3249123205
C     -1.295857046     -1.8937799229     2.5552135291
C     0.8916470285     -2.8608739485     2.0191088189
C     -0.4771548319     -2.8289831604     1.7926126892
C     2.8559189919     -1.7119375554     1.5019509079
C     1.8099534699     -2.5469942592     0.9165016204
C     3.1510712691     0.7288875743     1.3599662489
C     3.2738237262     -0.6000380197     0.7599969317
C     2.7139809923     1.6187424476     0.3207150887
C     0.7286165192     2.1999175643     1.6718602242
C     1.5633348555     2.4526662711     0.4875961861
C     -1.3764685394     0.9577828119     2.2197772095
C     -0.7224481901     2.0166609168     1.4605756495
C     -2.2115703881     -1.3190335634     1.6224601204
C     -2.3624214135     0.1123352536     1.5142828401
C     -0.9679406635     -2.8081414506     0.4341796093
C     -2.2075044455     -2.088265056     0.3983127537
C     1.3422742121     -2.3547020582     -0.4041520008
C     -0.0734363176     -2.677960203     -0.677738249
C     2.916751391     -0.4804862984     -0.6232103306
C     2.8808591569     0.9389618343     -0.9446231082
C     1.9918539352     -1.351213389     -1.2611753829
C     2.2428923216     1.3996034455     -2.0681164214
C     0.9550930382     2.9353604651     -0.6929732092
C     1.4648644672     2.5901926271     -1.9622590292
C     -1.3227254371     2.4523292082     0.2140286769
C     -0.5151894408     3.0174021167     -0.8189795406
C     -2.9747063014     0.580836222     0.3594870837
C     -2.5843696612     1.8551587864     -0.2215506564
C     -2.7703164792     -1.6068031697     -0.8014508326
C     -3.406228255     -0.311986315     -0.7331491678
C     -0.6613157282     -2.2852930442     -1.8951118597
C     -2.0806047095     -1.9539844775     -2.0128300868
C     1.3192811162     -0.8679679717     -2.4820499297
C     1.5200795784     0.4674451699     -2.9335573392
C     0.0732929938     -1.4984686146     -2.8818376282
C     0.3578178853     2.4723397506     -2.8761145412
C     -0.8493853895     2.8462706413     -2.2087637709
C     0.4295202651     1.2194201106     -3.5459653016
C     -2.9706182233     1.8310430946     -1.5690697304
C     -3.4988486093     0.4817766591     -1.882402649
C     -2.0681776957     2.2044216433     -2.6083354346
C     -2.216158808     -1.1318105599     -3.1611247561
C     -0.8694594929     -0.8373935756     -3.6849933913
C     -0.7831070794     0.5719391235     -3.9269852834
C     -2.9241028636     0.0742615525     -3.1081610571
C     -2.0360768626     1.1651696747     -3.5875992286


