56

 C     1.5396431966     -0.1928160199     4.2578713597
C     0.7625455361     -1.3194410998     4.2165104956
C     1.3053242427     -2.3132002429     3.2878536108
C     2.5631549239     -0.3666967083     3.2165070256
C     2.3692707308     -1.6926649465     2.5857948226
C     2.4775519869     0.7185240063     2.3694868725
C     0.6994030775     0.9410761538     3.8789501875
C     1.3488474331     1.6042294728     2.8428220913
C     -0.5967304024     -0.9858748534     3.7920640073
C     -0.6430958175     0.466235636     3.5676611804
C     0.1809370085     -2.7975515853     2.5410363957
C     -0.9663948273     -1.8780725725     2.7820139679
C     0.3894861538     -3.2409873964     1.2716357585
C     2.4708251575     -1.8564587475     1.1486112157
C     1.659428615     -2.9092851606     0.6129006
C     2.7197736461     0.6176742075     0.934750487
C     2.7239432008     -0.7036039944     0.2752741028
C     2.3865459419     1.7507337562     0.2076444023
C     0.619470683     2.3379829667     1.8885400771
C     1.3804418261     2.7154667931     0.7396174582
C     -1.3352930479     0.9508627639     2.4489299495
C     -0.7965948706     2.1198881562     1.7221487006
C     -1.7678879243     -1.4383545244     1.6663301671
C     -2.1005278592     -0.0226279459     1.640934233
C     -0.6611777649     -3.1384233771     0.2593739342
C     -1.7400512125     -2.1838442792     0.4171255664
C     1.3968577419     -2.9565978645     -0.7569248137
C     -0.0347490339     -3.2309482725     -0.9827638781
C     2.3940389208     -0.7498444565     -1.1491311606
C     1.7760583658     -1.9481393361     -1.6488681703
C     2.2273004921     1.739413825     -1.2311223286
C     2.1518860866     0.4911311466     -1.9233340994
C     0.7569672045     3.2987696049     -0.3315040744
C     1.3608568051     2.8084625023     -1.5739599606
C     -1.4357159351     2.5874630104     0.5045076161
C     -0.666295409     3.2765651283     -0.4944559903
C     -2.7474129172     0.4485616642     0.5011940677
C     -2.5644622116     1.8391896429     0.018791496
C     -2.325850931     -1.6187301094     -0.7944159645
C     -3.0236490296     -0.3870419732     -0.6249212609
C     -0.4634868025     -2.5362302238     -2.1275609365
C     0.7158549469     -1.8704397988     -2.6593756737
C     -1.7302909274     -1.8709820889     -2.1324378398
C     1.2982345861     0.4840610067     -3.0817145444
C     0.5597849906     -0.7415367545     -3.4324336095
C     0.3691334981     2.7087005775     -2.5516062547
C     -0.9226227554     3.0943000108     -1.9199422315
C     0.4393623067     1.5961862088     -3.425718417
C     -2.9392155958     1.8816489411     -1.3203331781
C     -3.2558390243     0.5022714209     -1.7384329993
C     -2.0953930024     2.4575202068     -2.3386353541
C     -1.8945062634     -0.8983343012     -3.1773695703
C     -0.7461376263     -0.4024201191     -3.8588380009
C     -0.8121555728     1.0646768837     -3.914735494
C     -2.7461141282     0.2597747212     -2.9838911582
C     -2.0312784131     1.4897783279     -3.422454866


