56

 C     1.4492852368     -0.2001733451     4.220459138
C     0.6288129775     -1.3707138612     4.1707290978
C     1.3917699231     -2.4286533471     3.5601084219
C     2.549490197     -0.4578589206     3.288125394
C     2.6139423933     -1.8074351709     2.9689961945
C     2.5170366714     0.5312737118     2.2143300266
C     0.7008713153     0.8457379717     3.6417474067
C     1.3938120264     1.3977447179     2.5130581815
C     -0.6573522637     -1.0284220396     3.607748367
C     -0.6423187156     0.41694002     3.3569294442
C     -1.2627640487     -1.8595597719     2.6037203797
C     0.8240301281     -3.2080204468     2.571153829
C     -0.5100297771     -2.9774983137     2.0653910878
C     2.704953588     -2.2039814442     1.5828726027
C     1.7134090796     -3.2117312978     1.4022820324
C     2.7882951045     0.1964537544     0.8582077769
C     2.891281827     -1.2318552616     0.5245941274
C     2.3426678192     1.150171217     -0.1470120731
C     0.7060447073     2.0622774142     1.481154702
C     1.4335257565     2.1982849318     0.2405268842
C     -1.3597866936     1.0257711116     2.2915999919
C     -0.7339608265     2.0532738771     1.4415154198
C     -2.16837743     -1.230723816     1.7050600384
C     -2.3061237445     0.2160831499     1.6248245333
C     -2.3491303142     -1.6769256435     0.361424652
C     -0.4789742791     -3.1589183817     0.6311211476
C     0.9279038017     -3.2891965948     0.2362937096
C     -1.3923566548     -2.5253263896     -0.2517579196
C     2.3760024581     -1.5913659903     -0.7537891699
C     1.3637322158     -2.5924708167     -0.8827988664
C     2.2601709421     0.767179133     -1.5670737091
C     2.1036028384     -0.6193663911     -1.7877902354
C     1.6718164555     1.633115864     -2.5285075256
C     0.8151811907     3.0010604337     -0.7355130969
C     1.1931591927     2.9258767027     -2.1176482515
C     -1.4092892864     2.5495836804     0.2514584353
C     -0.6082738193     3.2696776737     -0.6783760224
C     -2.8746696638     0.5983619988     0.352519094
C     -2.970425593     -0.6069647285     -0.4100842657
C     -2.5846997042     1.8423572497     -0.2778919229
C     -2.8633823279     -0.5649541137     -1.7937453977
C     -0.9678182863     -2.1745295426     -1.6474409756
C     0.425837757     -2.1529590794     -1.9090705884
C     1.0113558557     -1.0732728635     -2.6360988519
C     -1.7521612244     -1.2839790836     -2.4264838186
C     0.7278464934     1.168798243     -3.5510226752
C     0.2399131324     -0.177260372     -3.426793839
C     -1.1921970014     -0.4121743482     -3.4351484777
C     0.1352255639     3.3554361902     -2.9454261027
C     -1.0231188667     3.4973479122     -2.0598762349
C     -0.1814784705     2.2614986741     -3.8107653566
C     -2.8511024499     1.9129528368     -1.7004764435
C     -2.9797040335     0.6901370746     -2.4212513319
C     -2.0694498271     0.7279953875     -3.5733251653
C     -2.113707286     2.803561814     -2.5664641058
C     -1.5983240701     2.0173386299     -3.726319703


