56

 C     1.6175742096     0.0998409666     4.0950113368
C     0.8131713487     -1.0911902895     4.1260806354
C     1.4500037121     -2.1156103586     3.3856334597
C     2.6227819786     -0.1252285583     3.0928346148
C     2.5659752646     -1.4812433812     2.6732931868
C     2.5468090209     0.8964854498     2.0827605668
C     0.7882283702     1.1305154831     3.5471718258
C     1.4468200372     1.7649382672     2.4352363598
C     -0.5608234644     -0.7321115336     3.7625200421
C     -0.5533641866     0.6751948865     3.3531968924
C     -1.328853574     -1.6167442052     3.036704467
C     0.707903878     -2.8882431344     2.4531769639
C     -0.7047460606     -2.8193965989     2.4699772576
C     2.430992879     -1.7913690446     1.2987839782
C     1.3577687312     -2.7633375085     1.1434525339
C     2.706644384     0.5987281989     0.7007424479
C     2.6100384395     -0.7899392437     0.275723619
C     2.3411041553     1.6521707396     -0.2237030016
C     0.6969220176     2.4191294561     1.4470343567
C     1.3738880907     2.6717998368     0.1859646915
C     -1.3091388603     1.140599697     2.2257791799
C     -0.7442775022     2.2242705603     1.4464810115
C     -2.2754037207     -1.1143427534     2.023626561
C     -2.2528611266     0.2393554015     1.5648364029
C     -1.3913429088     -3.108558383     1.2737755046
C     -2.4464619692     -2.1415985888     1.0703652255
C     0.6532893796     -2.904374342     -0.0819316848
C     -0.7415419258     -3.2391966599     0.0175201584
C     2.1201682333     -1.0768684256     -1.056606803
C     1.1272747973     -2.1589042443     -1.2632536494
C     2.4104924865     1.3328586712     -1.6004626653
C     2.2170096265     -0.0413003592     -2.0141204307
C     1.7831020845     2.1703596192     -2.5826887837
C     0.6523499021     3.3828369661     -0.8123304577
C     0.9418974617     3.1971846611     -2.2120401389
C     -1.4330639146     2.6304736415     0.2779095929
C     -0.770411295     3.3844802346     -0.7050762215
C     -2.7020624386     0.509080843     0.1755949594
C     -2.4067227429     1.7641968047     -0.3747613772
C     -2.6327266191     -1.9058523945     -0.3186220208
C     -1.650385893     -2.7351414328     -0.9963080596
C     -2.9054857454     -0.5976359115     -0.787385444
C     0.2776424648     -2.0611132439     -2.3840433709
C     -1.1589188509     -2.3244726593     -2.2125739591
C     1.4074488387     -0.0263015365     -3.2365101814
C     1.1277824804     1.3159552573     -3.5891286269
C     0.3980280992     -0.9968117838     -3.3734476346
C     -0.3319486884     2.9814944586     -2.9535168893
C     -1.3436235473     3.0692429745     -2.0208063996
C     -2.3191777206     2.0171420167     -1.8265961646
C     -0.2093234712     1.7861807019     -3.7712493258
C     -2.6533346322     -0.3671297613     -2.1867902986
C     -1.8499920356     -1.288540661     -2.8939692193
C     -0.9137261054     -0.5417487128     -3.7165758495
C     -2.341149945     0.9592241826     -2.7179732491
C     -1.2622434075     0.8305657736     -3.7287159254


