56

 C     1.393426672     -0.1488091967     3.4811748028
C     2.5429293672     -0.3475755939     2.6826687945
C     2.4134654758     -1.6792552304     2.0658141595
C     0.5423993276     -1.3275981133     3.3816840586
C     1.1871101816     -2.311336086     2.5775733111
C     -0.7733358523     -0.913199659     3.0991721889
C     0.5824737844     1.014756652     3.3423789637
C     -0.7591434135     0.5569129966     3.0318982373
C     1.113919321     2.1272114891     2.6619654683
C     3.0380827413     0.7469089945     1.9328695504
C     2.4093476026     2.0115551708     2.0863050166
C     3.2731557828     0.5845546261     0.5019817458
C     2.7092245046     -1.8177482307     0.7187820655
C     3.0841571952     -0.6527369232     -0.0831949919
C     1.9132065921     -2.6865942609     -0.1346701689
C     0.4105589699     -3.1211239903     1.7547908802
C     0.8600069735     -3.432902519     0.3976916388
C     -1.5935523253     -1.697300076     2.2233823937
C     -1.0293752347     -2.9036831158     1.6745702041
C     -2.5368493101     -0.9760272549     1.4232074208
C     -1.5741314235     1.254816889     2.1100382458
C     -2.5280581607     0.4613659295     1.3782454502
C     0.2684138931     2.9028048463     1.7540565644
C     -1.0698397539     2.5032094131     1.489592293
C     2.3627606694     2.6757836669     0.7940347556
C     2.8116424011     1.7920865525     -0.2016555481
C     1.1178636163     3.3500709178     0.6527666999
C     2.1290873911     1.7095511463     -1.4744226047
C     2.4479749957     -0.7798672665     -1.3793923685
C     1.7759559563     -2.0501409389     -1.4341042329
C     1.9840143982     0.3753391964     -2.1041681573
C     0.6050616779     -2.2340516409     -2.2375388086
C     -0.3016692588     -3.6316712113     -0.4107720651
C     -1.4525700183     -3.3451588991     0.3856493147
C     -0.4635377656     -3.0338192235     -1.6959504299
C     -2.9565867277     -1.4630598716     0.1197277552
C     -2.3807092552     -2.6151213032     -0.4194698295
C     -1.8349379142     -2.543810064     -1.7751896803
C     -3.0262481232     0.8830482015     0.0840244197
C     -3.2455505713     -0.3152881038     -0.7264628304
C     -1.6300196693     2.9073753154     0.2185777443
C     -2.6065745321     2.0665221877     -0.492435527
C     0.600663412     3.4847270697     -0.6281553482
C     1.1394277703     2.6963587881     -1.733894587
C     -0.8148637409     3.4803974493     -0.7718670251
C     -2.3202316162     2.1080751813     -1.9225890251
C     0.0291869793     2.4190662545     -2.6455948325
C     -1.1678684765     2.9259639869     -2.0685256539
C     0.9374302268     0.1521560286     -3.0293450741
C     0.254733033     -1.1493487844     -3.1065991881
C     -0.0275649096     1.1921859668     -3.3344320943
C     -2.1347348375     -1.4574864527     -2.5911443714
C     -2.9171668644     -0.3240288488     -2.0730276529
C     -2.4003422204     0.9146627092     -2.6806267738
C     -1.1000482947     -0.8902418232     -3.3896705296
C     -1.2921706722     0.5515170762     -3.4797247946


