56

 C     1.4872831555     0.0665790128     3.8750416693
C     0.6863136931     -1.1239351961     3.7697880469
C     1.1955480788     -1.9277177551     2.7302017347
C     2.4687903805     0.0210594274     2.8305912583
C     2.3630397897     -1.2062265635     2.1334738126
C     2.4000172035     1.2061311201     2.0266491005
C     0.6183244724     1.1173013047     3.5081240659
C     1.1670309555     1.8861111722     2.4295399353
C     -0.7162682884     -0.7604502388     3.6798410113
C     -0.7540329994     0.6741176306     3.4150996941
C     -1.6174193063     -1.6029285798     3.018640234
C     0.2992493541     -2.6908505495     1.8794973653
C     -1.10950955     -2.6131368639     2.0758006239
C     0.7556493077     -2.9620849744     0.5722899422
C     2.6475152565     -1.288696051     0.7448589936
C     2.0168557189     -2.370936198     0.0519665482
C     2.7837530166     1.190334567     0.6762093661
C     2.9895173016     -0.0727677244     -0.0259656822
C     2.2910133013     2.3132259373     -0.0656316769
C     0.3096321814     2.474309116     1.4626601167
C     0.9665261605     2.885625957     0.2842953278
C     -1.6537485406     1.2266576567     2.4476376801
C     -1.127859927     2.1414747236     1.4102639404
C     -2.7547344362     -1.0095639072     2.4524721741
C     -2.7890274577     0.3965128858     2.1413968492
C     -2.0129519778     -2.6385469498     0.9357813601
C     -3.0908969405     -1.748711934     1.2414129167
C     -0.1514497252     -3.0982260404     -0.5335366454
C     -1.5264756069     -2.7117383188     -0.4129581117
C     1.9328870526     -2.3618777515     -1.3313208396
C     0.5828860087     -2.7713584954     -1.6996374679
C     2.8707019117     -0.0714221993     -1.4865840703
C     2.2806923056     -1.2292269024     -2.11102779
C     2.4335349951     2.3873861397     -1.4319347516
C     2.6859781001     1.1823930139     -2.1967629391
C     0.2914239346     3.2002649463     -0.9289107164
C     1.2648474807     3.070640599     -1.9899003326
C     -1.7664609016     2.2213237964     0.1133309717
C     -1.0584945776     2.7245104898     -1.0819667904
C     -3.3944502315     0.5056469984     0.8599467584
C     -3.561921902     -0.8645070889     0.2886228294
C     -2.8853473445     1.3298350177     -0.1267519006
C     -2.0668235362     -1.809963817     -1.4543191962
C     -3.0699873544     -0.8630684281     -1.026983043
C     -2.9198154824     0.5461161081     -1.3801643224
C     0.1095106258     -1.9282213411     -2.7081431883
C     1.2449361404     -1.0879545092     -3.1243759278
C     -1.228887509     -1.3956108127     -2.585373599
C     1.8566423627     1.2597563963     -3.3546782805
C     0.9477331662     2.417272862     -3.1626706327
C     1.0262073945     0.1574424197     -3.7044268482
C     -1.3818913867     2.1618709001     -2.3763809318
C     -2.1637909937     0.9203674352     -2.4290138731
C     -1.4217980313     -0.0918432877     -3.1753861074
C     -0.3924331719     2.0079364085     -3.3785746641
C     -0.3575636476     0.6093683858     -3.7720540476


