56

 C     1.2253298567     0.1437703976     3.9834688817
C     2.3859085942     -0.081578193     3.2270168179
C     2.3956308221     -1.4908211077     2.859069275
C     0.3780390052     -1.0772854994     3.8987448906
C     1.1324926357     -2.0871466515     3.2641521151
C     -0.8863581454     -0.6798183211     3.3736885152
C     0.4327413347     1.2491410114     3.7083591224
C     -0.9494648959     0.7505570682     3.4435880532
C     0.7561124689     2.1457559131     2.6735037435
C     2.6147654215     0.6844974526     2.0347471076
C     1.8235820332     1.8353986358     1.7370918031
C     2.8337062604     -1.6075118087     1.5283117262
C     2.9275643562     -0.2474952109     0.9586058834
C     2.3161291361     -2.653058598     0.7426581312
C     0.466637264     -2.9264491199     2.3435368166
C     1.2054783694     -3.3984294713     1.2365826931
C     -1.4579049706     -1.3294487104     2.1908937665
C     -0.8465107048     -2.5437051548     1.8063152712
C     -2.1749506023     -0.5174853298     1.16945264
C     -1.5142712817     1.5012945919     2.439650195
C     -0.5274149052     2.54993817     2.1161590797
C     -2.2482436009     0.9140160679     1.3287437308
C     -0.5840694251     3.1703015842     0.9308768038
C     1.6428524914     2.2016215357     0.3308824721
C     0.6041003433     3.1828883968     0.0555028891
C     2.5893839607     0.000363495     -0.383048471
C     2.0196625445     1.3166731723     -0.7437443199
C     2.1466025584     -2.4574623662     -0.6874188934
C     2.3334384753     -1.169673728     -1.2637494536
C     0.3165529162     -3.6034012328     0.1111800359
C     -0.9240273488     -3.0162182296     0.4195654009
C     0.98232823     -3.2452312962     -1.0906508878
C     -2.3815305097     -1.0700779294     -0.1867630766
C     -1.6581788184     -2.3055414395     -0.5874151264
C     -2.8376621196     -0.2151849307     -1.2050646452
C     -2.5312259956     1.8064812318     0.2028511285
C     -1.7627026024     3.0346473531     0.0859740313
C     -2.985380457     1.2228677637     -1.0187389684
C     0.1350757863     3.4406862232     -1.2110122297
C     -1.3562451968     3.5036591443     -1.1766553725
C     1.4223606225     1.5123771805     -2.0934519505
C     0.5071562507     2.6313762882     -2.334139793
C     1.6924876108     -0.9386539984     -2.5262318085
C     1.2632211971     0.3991096724     -2.9486903653
C     0.1989750834     -2.8343306766     -2.1477873675
C     -1.1935965957     -2.4471708006     -1.9251627603
C     0.7437750719     -1.8535625578     -3.01797531
C     -2.4384671651     -0.4265812045     -2.6118248817
C     0.0535077871     0.2495294804     -3.7694681813
C     -1.5199308636     -1.4445644308     -2.9253646822
C     -0.3309216525     -1.102465191     -3.634102509
C     -2.7310825569     1.8580112956     -2.2807531626
C     -1.8215820423     2.9248336407     -2.3488963333
C     -0.6503568208     2.4787655207     -3.1522095038
C     -2.2681947551     0.834973027     -3.2084239574
C     -0.9653244356     1.2268178746     -3.7224289796


