56

 C     1.2914991335     0.0405904117     3.7730642837
C     2.4703539742     -0.1813778542     3.0534736842
C     2.4297990119     -1.5340971306     2.4855778248
C     0.4389391956     -1.1033734833     3.5111472324
C     1.1043052154     -2.0286994466     2.6253457184
C     -0.8764192369     -0.6898157673     3.2816910442
C     0.4882250726     1.202693741     3.5400035193
C     -0.9085866586     0.7653975367     3.4727579184
C     0.9180443841     2.1266830734     2.5783173444
C     2.88207509     0.6904932296     2.0073749359
C     2.1012148952     1.8410431883     1.7707173062
C     3.0569088319     -1.5214113587     1.2263168291
C     3.3142517901     -0.1312729525     0.8591102187
C     2.5607159037     -2.3990169174     0.2568785341
C     0.3877515357     -2.5450319965     1.4738429315
C     1.1910599976     -2.8814386007     0.3561217511
C     -1.6800542778     -1.315888051     2.2462175491
C     -1.0302844633     -2.1847603538     1.2579663331
C     -2.8552841109     -0.5799928738     1.8875532328
C     -1.8495285528     1.5049947734     2.7773447314
C     -2.9347756324     0.8218527345     2.1852607122
C     -0.0566648486     2.7552846989     1.6870942902
C     -1.4150024904     2.5367004859     1.8218519773
C     1.8242953289     2.2414064164     0.4178521343
C     0.508235969     2.8422040353     0.364430261
C     3.1360353588     0.2942757313     -0.4761765985
C     2.3875821221     1.5469239128     -0.7094897352
C     2.7768837509     -2.0623072342     -1.0957113098
C     3.0264562672     -0.7389452679     -1.4930304588
C     0.6476564819     -2.9345072928     -1.0000162836
C     1.6709075074     -2.564870953     -1.9018878575
C     -1.5748574451     -2.2417095334     -0.1059136222
C     -0.7084025344     -2.5607801411     -1.2563049656
C     -3.4256831021     -0.7511310738     0.5931727346
C     -2.7809085232     -1.5088788857     -0.3908643017
C     -3.3161356034     1.5088164676     0.9597628718
C     -2.2740257111     2.4389492984     0.6415003501
C     -3.7330248997     0.563082075     0.0277547203
C     -0.2988988553     2.7616969393     -0.7957413437
C     -1.7366630356     2.4918607208     -0.6866881073
C     1.721410096     1.7324041862     -1.9334475316
C     0.4063927323     2.3764879008     -1.9875642861
C     2.2888444943     -0.5177246975     -2.7454185555
C     1.4437514155     -1.6992402635     -2.990502492
C     1.7645677826     0.7384271847     -3.0137876223
C     -0.9645591801     -1.9802172769     -2.5470633333
C     0.1093289721     -1.5367309131     -3.4068677483
C     -2.9090071026     -0.7673972221     -1.6499143866
C     -3.2597390996     0.604288317     -1.2999609964
C     -2.3711615354     1.657581785     -1.7309137866
C     -2.0686754971     -1.018896045     -2.7079042052
C     -0.2939842288     1.8500158647     -3.0758640653
C     0.5363250385     0.8528084133     -3.7545033677
C     -0.2805071404     -0.2544765239     -3.943716741
C     -1.6445170485     1.3798537244     -2.9332717772
C     -1.6364665252     0.0671732439     -3.5069774857


