56

 C     1.6404621486     0.087091463     3.8679243563
C     0.8421175611     -1.0643536449     3.7462914898
C     1.3688296237     -1.9195927119     2.7112883135
C     2.5724974601     0.0820085423     2.7805898644
C     2.4358185415     -1.1689414209     2.0747949918
C     2.4662454214     1.2923825983     2.0289028114
C     0.7777190267     1.2261983198     3.6337250675
C     1.3949635492     2.0817392709     2.6550310295
C     -0.5512748843     -0.6403955384     3.6212797562
C     -0.5763140799     0.8229326787     3.4787067581
C     -1.4101819382     -1.3950019272     2.8744008317
C     0.4843443248     -2.7219637953     1.9326515604
C     -0.9348427903     -2.5886942305     2.1776390415
C     0.8840991634     -3.0007064547     0.5847177204
C     2.6341660142     -1.2105394626     0.6729347078
C     1.9677058626     -2.2700277103     -0.0207267354
C     2.6496122871     1.3209976828     0.6117376533
C     2.8968915225     0.0416629925     -0.0580607021
C     2.0055652223     2.4154467239     -0.1342661897
C     0.5767598959     2.8632100411     1.8793551388
C     0.9833165173     3.1893689955     0.5164882953
C     -1.3977162384     1.4537593464     2.4735436219
C     -0.8618693074     2.634761714     1.8852245147
C     -2.413353483     -0.7472184224     1.9918521264
C     -2.3311196182     0.6387956618     1.659522246
C     -1.8339639326     -2.8035483204     1.1170712982
C     -2.7720097117     -1.69588685     1.0230884296
C     -0.0779943806     -3.2957020981     -0.4677822211
C     -1.4511282283     -3.1645895767     -0.1995464071
C     1.7425811201     -2.2219899631     -1.4524934756
C     0.4560993652     -2.8457538656     -1.7371133068
C     2.7789224847     0.0020205654     -1.4723695514
C     2.1829642387     -1.136843515     -2.1775878244
C     1.8845722181     2.3021227814     -1.5593462029
C     2.3896943647     1.1531142133     -2.1916904653
C     0.6547747679     2.6615510282     -2.2872124749
C     -0.19364802     3.498634925     -0.1964135668
C     -1.3099571628     3.0278858462     0.6014087042
C     -0.4169083643     3.1412363245     -1.5496251143
C     -2.6771897018     1.0175188996     0.2763001487
C     -2.1731436787     2.2685661362     -0.208835065
C     -1.7195921141     2.4454385229     -1.5983096069
C     -2.9759740903     -1.3761307115     -0.3422521148
C     -2.2769691073     -2.388986203     -1.1284668111
C     -2.9797553851     -0.0051437864     -0.7394234244
C     -0.3757613453     -2.3041717355     -2.7140527715
C     -1.7851786551     -2.0605542951     -2.3823403552
C     1.3729861197     -0.6313581596     -3.2992867428
C     1.5270624489     0.7732332828     -3.3183523475
C     0.4203063496     1.6559916702     -3.3256108927
C     0.0917526174     -1.1868791298     -3.5369372696
C     -1.931662396     1.4679219495     -2.5300814317
C     -2.6371729286     0.2441178788     -2.1219099069
C     -2.1362741955     -0.7923059742     -2.9325775089
C     -0.8794996374     1.1109488616     -3.493804714
C     -1.0023748524     -0.2833794035     -3.6999952365


