34
0 1
C       -2.979785    0.135811    0.423425 
C       -2.421236   -1.014621    0.996652 
C       -2.085192   -1.941748   -0.082341 
C       -2.677874    0.100975   -1.052966 
C       -2.059247   -1.175315   -1.313258 
C       -1.960796    1.239378   -1.368011 
C       -2.274385    1.329525    0.966262 
C       -1.892437    2.129496   -0.126932 
C       -1.322749   -0.610953    1.933358 
C       -1.254832    0.868584    1.902937 
C       -0.156018   -1.358018    1.967206 
C       -0.892003   -2.699333   -0.001820 
C       -0.024750   -2.543348    1.084949 
C       -0.716296   -1.283275   -1.907240 
C       -0.099655   -2.406512   -1.271043 
C       -0.606946    1.206683   -1.949877 
C        0.054069   -0.074354   -2.177390 
C       -0.637168    2.761891   -0.131623 
C        0.105102    2.301243   -1.376604 
C       -0.001404    1.511135    1.902692 
C        0.227777    2.604016    0.970749 
C        1.169176   -0.679704    1.980963 
C        1.245853    0.699847    1.951831 
C        1.357394   -2.565382    0.586603 
C        1.279522   -2.406283   -0.925871 
C        2.076480   -1.490026    1.115087 
C        1.470677   -0.129707   -1.913601 
C        2.046538   -1.300371   -1.266634 
C        2.751487   -0.808935    0.006228 
C        1.483463    2.210214   -1.044201 
C        1.605973    2.461473    0.444426 
C        2.227475    1.363572    1.037923 
C        2.146098    1.016474   -1.325982 
C        2.815689    0.547568   -0.035896 
