34
0 1
C        3.212299    0.463753    0.347325 
C        3.036448   -0.971632    0.590375 
C        2.587031   -1.565049   -0.587156 
C        2.735235    0.725355   -1.080182 
C        2.265804   -0.509932   -1.612302 
C        1.823547    1.795170   -1.041547 
C        2.336965    1.155448    1.203172 
C        1.668545    2.194445    0.438017 
C        1.919640   -1.104903    1.600340 
C        1.446922    0.179255    1.926147 
C        1.327114   -2.298423   -0.331069 
C        0.967123   -2.081698    1.053029 
C        0.893534   -0.674679   -2.000139 
C        0.389796   -1.930870   -1.346700 
C        0.507302    1.702370   -1.589785 
C       -0.006701    0.447576   -2.070585 
C        0.362945    2.473778    0.665941 
C       -0.362941    2.473774   -0.665958 
C        0.006703    0.447595    2.070582 
C       -0.507298    1.702383    1.589776 
C       -0.389801   -1.930857    1.346713 
C       -0.893536   -0.674660    2.000143 
C       -0.967130   -2.081707   -1.053015 
C       -1.327120   -2.298419    0.331085 
C       -1.446921    0.179241   -1.926149 
C       -1.919643   -1.104916   -1.600335 
C       -1.668540    2.194444   -0.438031 
C       -1.823543    1.795180    1.041537 
C       -2.336961    1.155442   -1.203180 
C       -2.265804   -0.509915    1.612307 
C       -2.587035   -1.565040    0.587168 
C       -3.036450   -0.971633   -0.590370 
C       -2.735234    0.725368    1.080177 
C       -3.212296    0.463756   -0.347328 
