52

 C     3.6889845403     -0.5773391018     1.5537614138
C     4.4868150233     -0.6986298043     0.3708237286
C     3.0854252626     0.7471570517     1.6517354566
C     1.0787296656     2.1057845885     1.7343585242
C     -0.393722889     2.163323652     1.6869580575
C     -1.2089386013     1.1292141649     2.1617593199
C     1.746652743     0.9180649443     2.1545425317
C     -0.5599031774     -0.1911182636     2.3609978176
C     0.8826033054     -0.2754170751     2.3909714035
C     4.2627173303     0.5154653795     -0.3612251992
C     3.7094332199     0.2112589242     -1.6283194137
C     3.5440249425     1.4720676183     0.4716250091
C     2.5556603992     0.9063362909     -2.0974688996
C     2.1253029486     2.0878423719     -1.4811355378
C     2.6592059624     2.3731066501     -0.1368553938
C     1.5755187342     2.8458468704     0.6389173448
C     2.0248626972     -1.37628343     -1.9919498845
C     0.7100853656     2.4183836991     -1.4769460525
C     -0.313620578     1.5516277932     -1.9995436976
C     0.1349830341     0.216027672     -2.3889251828
C     1.5224766863     -0.0835515049     -2.4045434405
C     -2.1712677658     -0.6029694954     -2.1409346665
C     -0.7703166765     -0.8856235662     -2.1459541062
C     -0.2941109646     -2.007366296     -1.3858162241
C     1.1166945528     -2.2214410886     -1.235846012
C     1.6012631149     -2.70681694     0.0264786084
C     0.4296794597     3.0374751876     -0.232620825
C     -1.690501064     1.7468624299     -1.5544074924
C     -2.6552661382     0.7536642795     -1.9085974662
C     3.3953499743     -1.2323256863     -1.6111063051
C     2.9168629314     -2.4409497593     0.4426846059
C     3.8745928874     -1.7726694202     -0.3968555365
C     1.4680749415     -1.5443914683     2.0522324698
C     2.8374546918     -1.6941007983     1.699955028
C     -2.7579932902     -1.2444344538     1.7111585205
C     -1.3371986756     -1.3179935787     1.8867528898
C     -0.6453549949     -2.2656849374     1.0202627787
C     0.7145478395     -2.3890563484     1.1630382391
C     -3.4014667138     -1.9493291425     0.6768426315
C     -2.5891278356     -2.3320543616     -0.477972787
C     -4.2693248434     -0.7983062214     -1.147148557
C     -3.092491064     -1.5171497918     -1.5662713971
C     -1.2100039357     -2.4508077015     -0.3209192411
C     -4.4904798012     -1.0668990109     0.1946787977
C     -4.5456194368     0.1631046849     0.959139405
C     -4.1122247644     1.2201307417     0.013986888
C     -3.9402991271     0.6549745648     -1.2602020145
C     -0.7759639311     2.8099368524     0.4529147005
C     -2.974397798     1.9199202159     0.5614276402
C     -1.9257487671     2.403736235     -0.2686485336
C     -3.4483043165     0.0618656675     1.826376831
C     -2.5743451037     1.2095707159     1.7558732248


