52

 C     -3.9283030276     0.6275771745     -0.8112000709
C     -3.9144665484     -0.7047395335     -0.4085914993
C     -2.8585036896     2.3793178167     0.2936399028
C     -3.8434242325     1.4316526824     0.4114651609
C     -1.1978140759     -3.0512247944     -0.1528966006
C     -2.4110909112     -2.428887412     0.0621777966
C     -3.0314402439     -1.6491125497     -1.0079811565
C     -2.9143191404     1.1189270815     -1.7130930583
C     -2.1048920885     0.187533404     -2.3686256323
C     -2.2072923633     -1.2366246586     -2.0770384478
C     -0.8738274366     -1.7952240255     -2.2257912615
C     -0.4036238592     -2.765010933     -1.3547554768
C     -0.1310411315     2.9491029259     -0.0117745462
C     -0.8757858761     2.5052418865     -1.1991488445
C     -2.2398479677     2.2627875689     -1.0388020394
C     -0.2781843538     -3.1202839015     0.9291034532
C     1.0627165853     -3.1091185036     0.3981029516
C     3.0270854672     -1.7615386806     0.7411497888
C     1.9001692038     -2.3766476617     1.2849085734
C     3.1140015007     -1.563007678     -0.7103365681
C     1.0128911989     -2.7833229679     -0.9749845751
C     1.9703815277     -1.8461401425     -1.524477074
C     -0.3263470042     -2.1645884571     1.9749879549
C     -1.4815361355     -1.332468529     2.124376959
C     -2.6227975797     -1.6921828174     1.3127281299
C     -3.6524650261     -0.7445868452     1.0715333337
C     -3.5582566465     0.5476081638     1.5600544637
C     0.1221675718     0.5993634679     2.5292004667
C     -1.273288281     0.0833525198     2.4782327333
C     -2.3242481444     0.9947638471     2.161070019
C     0.3505097332     1.9001749054     2.0284607987
C     -0.6875526344     2.5855156578     1.3129511235
C     -1.9897684034     2.244819745     1.4633192959
C     1.0383772007     -1.6784845408     2.2110741031
C     2.5900903677     0.214404103     2.1435478465
C     1.2908231777     -0.3077085484     2.5015738329
C     4.2109520552     0.2253678073     0.4249399773
C     3.5089775428     -0.5819103297     1.386081668
C     3.7226658615     1.5252356613     0.4853256293
C     2.7462871579     1.5724160903     1.585733087
C     1.5994926331     2.2973045963     1.4039433146
C     3.2801647596     1.8993630434     -0.8503318811
C     3.3533327532     0.6728042327     -1.6929180742
C     3.8616252585     -0.3417198305     -0.9009080468
C     0.0411958984     -0.7349083295     -2.6545210703
C     2.0916192189     0.50877666     -2.3515206686
C     1.4430905841     -0.7708499125     -2.3859029268
C     1.2501631879     2.8851023593     0.0778403228
C     2.0342688731     2.4631354496     -1.0550287118
C     1.3066310568     1.6934235312     -2.092515082
C     -0.0956288182     1.683811726     -2.1540670838
C     -0.703914756     0.481427475     -2.6402722905


