52

 C     -3.9253881514     1.2355968392     0.0116465707
C     -3.6832880895     0.8960128966     1.3720041355
C     -2.4855451877     1.6711549726     1.8252799646
C     1.6717711562     2.1865532917     1.3624106061
C     0.2846876638     2.0754784723     1.577451784
C     -3.459395559     -0.4233001602     1.7200951433
C     -0.1943046263     0.9762406378     2.4020627552
C     -1.6087434047     0.8422993255     2.5606414839
C     -2.2317626196     -0.466565004     2.5390069968
C     -3.3791490785     -1.470121911     0.7137262392
C     -3.7115039001     -1.1392465421     -0.6431939816
C     -4.0153104987     0.2517494204     -0.9602296514
C     -2.1595891601     -2.1852732608     0.9810589127
C     -1.3305046336     -2.6691945212     -0.0582403906
C     0.0405395097     -2.8883971979     0.2309137106
C     2.0313342226     -2.4342379531     1.3545113864
C     0.6641209344     -2.4929201895     1.5232475134
C     2.6295269128     1.1764144529     1.7991464692
C     2.1088004307     -0.1075222099     2.2133806897
C     0.6558162253     -0.2111544282     2.480318913
C     -0.0304255838     -1.4730900246     2.2473474134
C     -1.4650248176     -1.5371697978     2.1498441808
C     2.8152389657     -1.2788235916     1.7429393227
C     -2.4441848564     -0.430765225     -2.5231886363
C     -3.1054836024     0.6721398585     -2.0663777791
C     -1.642282625     -2.2842917187     -1.4154539756
C     -2.8197736058     -1.5892816202     -1.6749050034
C     -1.0195453762     -0.4375957219     -2.7113378174
C     -0.2246652239     0.7330275357     -2.4952326143
C     -0.8944125658     1.8418960577     -1.8225950976
C     -2.3236012284     1.8194855988     -1.6378330826
C     -2.8581619115     2.1983929933     -0.3911791415
C     1.2785520076     2.5886636478     -1.0083405092
C     -0.1055125619     2.5598418272     -0.8288412099
C     1.0628795406     -2.7836625889     -0.7555380641
C     0.8187726883     -1.8714585716     -1.8660666587
C     -0.5359646423     -1.6821075605     -2.2065736947
C     1.7756811824     -0.7971226338     -2.147237624
C     1.2202209035     0.5428843542     -2.3600931819
C     1.9577583045     1.6688639203     -1.8766685129
C     -0.605929183     2.5896018748     0.5426878323
C     -2.0031871316     2.4379122785     0.7319339146
C     3.4333931109     2.267824162     -0.1168918947
C     2.1566795343     2.7731519766     0.1478659291
C     3.839850071     0.2521040487     -1.1812797957
C     3.3118693369     1.5329910975     -1.3530554369
C     2.3030792338     -2.7129337532     -0.0568273536
C     3.2858061872     -1.8404492188     -0.4581476428
C     3.0980161652     -0.8978786219     -1.5439533511
C     3.7779711904     1.3040020678     0.9262314772
C     4.217963619     0.1293642736     0.2827520484
C     3.8223407281     -1.119123856     0.7207667088


