52

 C     -3.7178813155     -1.1482453527     0.6784429116
C     -2.9522363776     -2.218162565     0.2819128539
C     -1.8969780797     -2.449890772     1.2917327276
C     1.706228147     -0.7155646083     2.5050671855
C     0.5252708326     -1.418287056     2.2300417154
C     -3.2752812741     -0.000065782     -1.4507967806
C     -2.5186591574     -1.1738689819     -1.8894519034
C     -3.9083423657     -0.0000208189     -0.17714836
C     -2.3293351022     -2.2675185477     -1.014884993
C     -0.9889043054     -2.7908417055     -0.8151997088
C     -1.3932505837     -0.7271772825     -2.6945286555
C     -0.1699164515     -1.403814476     -2.6719944441
C     0.0481102463     -2.4456291952     -1.6688458834
C     1.3973085262     -2.373277316     -1.1914761857
C     2.919014619     -1.8348244461     0.6511242705
C     1.6858100945     -2.4128326703     0.2149656579
C     0.5481068201     -2.4078152836     1.135262687
C     -0.7093324112     -2.811081036     0.6248722691
C     2.9733500261     -1.093613466     1.8739526921
C     -2.9523594767     2.2182497555     0.2817343864
C     -2.3293481059     2.2674597889     -1.0150522237
C     -3.7179061492     1.1483875371     0.6783631279
C     -2.5186226057     1.1736673445     -1.8895142037
C     -1.3931753845     0.7268236726     -2.694450687
C     -0.9889441045     2.7906864819     -0.8152716219
C     0.0482158039     2.4451776634     -1.6687663378
C     -0.1698111216     1.403372898     -2.6719568435
C     -3.1610828837     0.6810226571     1.9912985843
C     -3.1610432241     -0.6807262714     1.9913547299
C     -1.9470563151     1.4211331625     2.2659623315
C     -1.9470010962     -1.4207908001     2.2660771355
C     -0.7268418461     -0.7310441792     2.5691092112
C     -0.7268882823     0.7314252728     2.5690760472
C     0.5251293498     1.4188601973     2.2301303247
C     2.9732637656     1.0944226429     1.8742756384
C     1.7062276803     0.716290048     2.5052732746
C     -0.7094696427     2.8113510986     0.6247496023
C     -1.8970778015     2.4502241645     1.2916437894
C     1.3972381229     2.3728207668     -1.1912764254
C     1.6857649049     2.4129013677     0.2151243961
C     0.5479878502     2.4081759554     1.1353588619
C     2.9188819637     1.8349292131     0.6515240085
C     2.0974656369     1.4013600634     -2.0274874448
C     3.210666079     0.7234961198     -1.558178855
C     3.7639534257     1.0961300857     -0.2523538822
C     2.0974776874     -1.402079255     -2.0277546853
C     1.0816939594     -0.7014003262     -2.8125227178
C     1.0817179813     0.7008390507     -2.8124455992
C     3.2108172188     -0.7242202667     -1.5583823378
C     3.7638885581     -1.0966355074     -0.2526470749
C     3.8937300327     0.0001213295     1.7732052347
C     4.3994461312     0.0000596302     0.4207221995


