52

 C     2.8066554798     -0.1792562498     -1.8834745735
C     3.6699870924     -0.0647900515     -0.7683941666
C     2.0885396366     0.9639244968     -2.3160049937
C     0.0094432442     -2.679646048     -1.6440513251
C     0.7744937469     -1.6179340382     -2.2589585774
C     2.1329061746     -1.4876101374     -1.855834293
C     3.5187437808     1.048511765     0.1432792236
C     3.2466751824     0.4871860188     1.4241307195
C     2.7486371255     2.168873697     -0.269185772
C     2.2372264736     2.19113124     -1.5762481845
C     1.7197641228     2.755989869     0.6276712762
C     1.3606490974     2.0522682689     1.8127880865
C     2.0941737412     0.8528497588     2.156454815
C     -0.0094633203     2.0856500695     2.2378916166
C     0.6655003153     3.3070240163     -0.2103445137
C     -0.6656556019     3.3068502229     0.2117899433
C     -0.9465491973     2.852221043     1.5467611393
C     0.9463042921     2.852769183     -1.5453907264
C     -0.7130801912     0.8506159857     2.6877674994
C     -0.0333827441     -0.3993522436     2.6928666958
C     1.3873309215     -0.3569324601     2.5564666932
C     2.1335202377     -1.4949597449     2.0115877815
C     1.4440193189     -2.5619948668     1.4579727041
C     -2.0884980372     0.9628246534     2.3163493448
C     -2.806645474     -0.1801847959     1.8833664296
C     -2.1328418633     -1.4885444744     1.8551467984
C     -0.7744056515     -1.6189626649     2.2582779313
C     -0.0093437264     -2.6803484427     1.6428754594
C     -3.6700479917     -0.0652236218     0.7684281995
C     -2.2373412858     2.1904947428     1.5772728648
C     3.5370955825     -1.3032684467     -0.0047165511
C     2.6425765359     -2.1967251563     -0.6879558581
C     3.2816446542     -0.9733122037     1.3219126722
C     1.7569887565     -2.9676920192     0.0809076898
C     0.5247603697     -3.3340473025     -0.5082454266
C     -0.5246355489     -3.3342727867     0.5067785127
C     -3.5370533185     -1.3033468687     0.0041665959
C     -2.6424818492     -2.1971166076     0.6870016989
C     -1.7568741841     -2.9677334787     -0.082166697
C     -3.2815773734     -0.9728816878     -1.3222897702
C     -2.7486327498     2.1686503875     0.2701108245
C     -3.2466476642     0.4876631293     -1.423836109
C     -3.5188020864     1.048509935     -0.1428135175
C     0.0093236909     2.0866263171     -2.2370801385
C     -2.0942422945     0.853783411     -2.1560694491
C     -1.3607341291     2.0530444541     -1.8119683341
C     -1.7198786511     2.7562680634     -0.6264876512
C     -1.4438979415     -2.5613556903     -1.4590907471
C     -2.1334158212     -1.4941278346     -2.0122704583
C     -1.3873198993     -0.3557463361     -2.5566074719
C     0.033434023     -0.3981730501     -2.6930499166
C     0.7130649996     0.8518085812     -2.6874779932


