52

 C     1.5834437478     2.5744330857     1.4062769628
C     1.5186260791     -1.4249326751     2.3103486164
C     0.2826391521     -0.7436613219     2.5473864174
C     0.2826783894     0.7445049834     2.5471305417
C     1.518704688     1.4256575248     2.3099290375
C     -2.1918762282     0.7496333446     2.0956292515
C     -0.9473090882     1.4740432515     2.1907031913
C     -0.8626145441     2.6957718742     1.4556058716
C     0.4247532106     3.2104038255     1.0168053989
C     0.2896295026     3.6225548118     -0.3697091207
C     -2.1918485615     -0.7486779308     2.0960248552
C     -0.9474053656     -1.4732101665     2.1912534012
C     -0.8628577504     -2.6952259046     1.456555549
C     2.6519279209     2.2874892356     0.4044303445
C     1.1625403137     3.1870128079     -1.3372638754
C     2.3169288846     2.4069197597     -0.9819563262
C     2.2830906939     -1.2150229525     -1.7641224754
C     2.8765015376     -0.0003274782     -1.3080731942
C     2.2831822548     1.2142523953     -1.7645014495
C     0.9760695466     -1.212522689     -2.5043922831
C     0.350735773     -2.4257462527     -2.3015916836
C     0.9761355959     1.2114986834     -2.5048454831
C     -2.9420577801     1.2627628941     -1.0457320308
C     -1.8545850677     1.2852463955     -1.9716410686
C     -1.2257790543     -0.0003722705     -2.3839382003
C     0.1986230404     -0.0004824138     -2.6402415332
C     -1.8546664348     -1.2858330417     -1.9711360017
C     -1.0450388436     -2.4754686848     -1.9337689881
C     0.3507844281     2.4247640762     -2.3023489008
C     -1.0891990909     3.3146031369     -0.7822615366
C     -1.044917634     2.4747934424     -1.9348020691
C     3.5175296536     -0.0001225058     -0.0006186629
C     3.3362159457     1.1532354498     0.8368432043
C     1.1624169651     -3.1877025298     -1.3363466677
C     2.3167666221     -2.407477083     -0.9811850979
C     2.6517127669     -2.2875227821     0.4051314734
C     3.336096302     -1.1530930443     0.8371494036
C     0.289354343     -3.6225999811     -0.3685456303
C     2.7159874415     -0.6870795942     2.0911539914
C     2.7160398372     0.6876680173     2.0909486795
C     0.4244878177     -3.2099494611     1.0177837734
C     1.5832903508     -2.5740195113     1.4070515492
C     -1.0894979019     -3.3150122253     -0.7812062732
C     -3.5423684453     0.0000866993     -0.6569115115
C     -2.9420372855     -1.262922183     -1.0452463491
C     -1.8143204089     2.9260413249     0.3578324524
C     -2.8885239837     2.0596026133     0.1658014608
C     -3.8636516086     0.0003656297     0.7023647811
C     -3.2367385612     1.177777305     1.253331285
C     -1.8144991128     -2.9257920085     0.358879212
C     -2.8886754892     -2.0594427823     0.1664995521
C     -3.236414564     -1.1768730939     1.2535461557


