52

 C     -1.1705753978     -1.7620146248     2.3239999985
C     -2.5009952386     -1.4501728562     2.0571380662
C     -0.3011293039     -0.7593588926     2.7988022334
C     1.120398037     -0.8650028387     2.5747108796
C     2.9508589509     -1.5505928647     1.101996164
C     1.6653174026     -1.8569056176     1.7081305776
C     -3.7660430102     -0.0305039614     0.7657597405
C     -3.5820675766     0.9863915423     -0.2005695505
C     -2.7805569305     2.1253030761     0.1125068585
C     -2.9286328672     -0.0805347836     1.9183881188
C     -0.6952548641     0.6146046747     2.7385716868
C     -1.9685069321     0.9926296898     2.1818035446
C     -1.980813713     2.1338602198     1.3238192869
C     -1.9717871363     2.6821367441     -0.9149556778
C     -0.7632020906     3.2034963243     -0.3253856789
C     1.5860122967     2.7565957227     -0.6396263543
C     0.3453375861     2.9043102564     -1.1914145637
C     0.5250758821     1.3978442883     2.5396536187
C     0.5303944236     2.4932907974     1.6305503369
C     -0.7297541608     2.8581412213     1.0372813179
C     1.7212351756     2.6947319951     0.8208753668
C     -1.5832932315     1.9010171269     -2.0424201217
C     -2.2783062121     0.6916505095     -2.2998317536
C     -3.3608973208     0.3403491713     -1.4735737551
C     0.5880924745     -1.6818353877     -2.3856373118
C     -1.5084088536     -0.5086498988     -2.5577988905
C     -0.1185061586     -0.4538274902     -2.7010314601
C     0.6278650651     0.8331474929     -2.5385177654
C     2.0670866866     0.8088534879     -2.1502286685
C     -0.1408827928     1.9744933493     -2.2173797832
C     2.5457251839     1.8322423908     -1.2388607405
C     -3.3656392752     -1.1155615977     -1.2828180679
C     -3.6934624778     -1.3561019248     0.0814281656
C     -2.8976087098     -2.1857036699     0.8469759012
C     -2.2003261687     -1.6396048025     -1.8526804518
C     -0.0286132548     -2.6326216103     -1.413937056
C     -1.3969287129     -2.5684658913     -1.0853043548
C     -1.7256304896     -2.8070606949     0.2976936301
C     0.6994978988     -2.7112995257     0.9441305023
C     -0.6662179255     -2.6837323666     1.285624094
C     3.191185673     -1.9215361321     -0.2870269649
C     2.2254231775     -2.5285783479     -1.0273961079
C     0.9719108553     -2.9442894784     -0.456207582
C     3.6900330766     -0.7251025189     -1.0319528222
C     3.9785743881     0.2387043071     -0.080866434
C     3.5042404564     1.5461834514     -0.2266606084
C     2.7335600926     -0.4641228494     -2.0702010431
C     1.9495893543     -1.6845969275     -2.2050142141
C     1.6403767531     0.4910312868     2.5825622969
C     2.8472060805     0.7955844012     1.919171669
C     2.8769148712     1.939443603     1.0545910445
C     3.5221189634     -0.268229576     1.2511126832


