52

 C     -0.5874085069     2.7740849598     0.3091008122
C     1.7632951894     2.5941795944     -0.1286837864
C     0.6856113583     2.5763909407     0.841851643
C     0.8210031852     1.7327739594     2.0379413712
C     -0.3820096857     0.9818135409     2.4475085267
C     2.1086210637     1.1724121573     2.2819994209
C     -0.1838578384     -0.3961693401     2.7287952871
C     -0.812712076     2.5853664329     -1.1205467706
C     0.1751057266     1.9322330275     -1.9196785672
C     1.5027463728     2.145043497     -1.4928848877
C     2.5815383154     1.2535795752     -1.8655217559
C     2.2616788438     0.034528423     -2.4564158427
C     -2.1541457555     2.2579273127     -1.2829702905
C     -0.1984578601     0.6934135763     -2.6149376025
C     0.8743898318     -0.2328710562     -2.8466828478
C     -3.8496607608     1.4090802831     0.0569396829
C     -2.8379861558     2.3493066007     0.0265702799
C     -3.9142538066     0.4968046455     1.1280799722
C     -1.8122873302     2.4229233533     1.0147410032
C     -1.7344469093     1.4008902198     2.0235160943
C     -2.8141104619     0.4313343525     2.053218465
C     4.1518773323     0.1835709163     -0.2712122928
C     3.5814333927     -1.1070072096     -0.6453375137
C     3.5953076203     1.3192167956     -0.8344507658
C     2.800397283     -1.1904639904     -1.8209159885
C     1.7565809118     -2.13793908     -1.8622637814
C     -2.5726482874     1.0769525065     -1.9487673516
C     -1.5624083754     0.1739375268     -2.4530821978
C     0.6354047353     -1.6108021395     -2.6224231166
C     3.3385299977     -0.7491101593     1.6470445812
C     4.0620453445     0.3342240607     1.1821356375
C     1.2310227933     -2.7499808365     -0.6927329538
C     1.8273020627     -2.4419813051     0.5757263621
C     3.0573695476     -1.7071404567     0.5680220802
C     0.898938594     -2.2182633013     1.6744152994
C     3.2470310815     1.525774652     1.46376821
C     3.0583988312     2.1937274311     0.2492776869
C     1.0947894701     -1.0234979054     2.5348985706
C     2.2307293766     -0.2712796584     2.4767497805
C     -0.2167848025     -2.7973950369     -0.8454935604
C     -2.4269235807     -2.3140928385     0.0027411924
C     -1.0854545039     -2.740977729     0.2551376066
C     -0.4807814549     -2.4016367492     1.5413078102
C     -3.7303525748     0.5979156926     -1.2173431177
C     -3.8739672251     -0.7289168578     -0.8801860935
C     -2.7804161579     -1.6377512515     -1.2100070084
C     -1.7401364052     -1.2488834837     -2.1191841628
C     -0.5696003298     -2.0546865661     -2.0582433309
C     -4.1687644756     -0.8350136109     0.5531898288
C     -1.1715446803     -1.3687599596     2.3535972882
C     -3.2195007485     -1.6930374768     1.0697479725
C     -2.4605275123     -0.991708035     2.1119531215


