52

 C     -3.6466622748     -0.5269773407     -1.3338642476
C     -3.9222064741     0.5181475621     -0.4692152018
C     -3.2581369031     1.7400511537     -0.6244385248
C     -2.5838413104     -0.4131978089     -2.3135501449
C     -0.3364438077     0.6429357025     -2.6781581886
C     -1.7855894545     0.7754643986     -2.3981321468
C     -2.2131946682     1.891280942     -1.558777079
C     1.8758101268     1.6638426315     -2.2651171762
C     0.5044084673     1.7782999216     -2.3576564127
C     -0.5054510296     -1.7777931766     -2.3578827849
C     -1.876805048     -1.6634107454     -2.2648365372
C     2.212602544     -1.8910343549     -1.5602040697
C     1.7845301122     -0.7749451992     -2.3991044054
C     0.3353573492     -0.6423381058     -2.6784858491
C     2.5828138423     0.4136972834     -2.3144814471
C     0.0755333254     2.6844926473     -1.2682853714
C     -1.2074706334     2.688320116     -0.8574201632
C     -3.0238681077     1.0997383554     1.6447676925
C     -3.7194649714     0.0684507695     0.9534758884
C     -1.9952749367     0.7427617784     2.5274418055
C     -1.4905332561     2.709469972     0.5852164106
C     -2.7655222072     2.168243922     0.7216262625
C     -0.7686958399     1.5231377616     2.5814749993
C     -0.4207235458     2.4093740511     1.5297408186
C     -1.6011447933     -0.6529199275     2.6448142051
C     -2.0343395612     -1.6181127305     1.6852683518
C     -3.2212224207     -1.2530661532     0.9171399635
C     -3.3450736864     -1.6883703514     -0.4693795206
C     -2.3291629273     -2.3923331236     -1.0444557543
C     -0.2490742559     -0.6587185541     3.1089254158
C     -0.9860412133     -2.4710462863     1.0608721696
C     -1.1727524356     -2.801147695     -0.3114070274
C     1.172629164     2.8013727804     -0.3112495687
C     0.9864639681     2.4707294281     1.0609623727
C     0.2504995076     0.6581811495     3.109269498
C     1.2070696012     -2.6881726085     -0.8585602704
C     -0.0760734492     -2.6841823829     -1.2688916638
C     1.4906782786     -2.7096501865     0.5839225131
C     0.7698936604     -1.5237373001     2.5807743816
C     0.4213464043     -2.4097494494     1.5289751602
C     2.7656562181     -2.1682403465     0.7198464377
C     1.9963414101     -0.7433839547     2.5264156747
C     3.7200555567     -0.0686814626     0.9519348528
C     3.0245750302     -1.1000559162     1.6431899191
C     2.3286860502     2.3924960876     -1.0448302391
C     3.3449637619     1.6885598515     -0.4703717288
C     3.2216298458     1.2528239876     0.9160648412
C     2.0350932346     1.6177216006     1.6847852782
C     1.6022645037     0.6523607479     2.6443536846
C     3.2578534852     -1.7399794761     -0.626317385
C     3.9218886017     -0.5179982083     -0.470924579
C     3.6461051617     0.527308243     -1.3352411095


