52

 C     -0.9125102051     1.1548634457     2.5359378244
C     -1.2248689879     2.2937442669     1.7723093119
C     -2.4611278071     2.347951886     1.1033934559
C     0.4557310123     0.7333519672     2.633669786
C     1.5478790529     1.4592477502     2.0552008254
C     2.7600295215     0.7350795247     1.8686957597
C     -2.1552519161     2.8084359781     -0.2676159863
C     -2.8717902882     2.0603387422     -1.155763434
C     -0.7394488802     2.9500056458     -0.4115983819
C     -0.0754437752     2.3152011555     -1.5124572982
C     1.3163218177     2.2300529834     -1.3789282966
C     3.2577661197     1.9427898237     -0.1950055827
C     1.9795075757     2.5384370183     -0.1358669195
C     1.1930624103     2.494149228     1.0713048486
C     -0.1577159457     2.8343600934     0.9045026437
C     3.7447621408     1.1431573865     0.8534582136
C     -3.7910145699     1.1831313625     -0.3684610537
C     -3.9031718964     -0.00912048     -1.0419869618
C     -0.7844664207     1.2729995787     -2.2823849804
C     -2.2048981728     1.2477640747     -2.163330785
C     -2.8937964114     0.007335872     -2.16212803
C     -3.8164395742     -1.2456555096     -0.384797388
C     -2.903548714     -2.052268883     -1.1474852291
C     -2.155985396     -2.8330255007     -0.2609385944
C     -0.7691054839     -2.9154882282     -0.4050944605
C     1.2925081318     -2.2309967537     -1.4009500746
C     -0.0837180238     -2.2928715221     -1.525768376
C     2.1070200605     1.2178485631     -2.0750637713
C     1.4053013957     0.0018823709     -2.4320964132
C     -0.0656861018     0.0107595469     -2.4881714941
C     -0.7906669831     -1.238516385     -2.2733702335
C     -2.2189390677     -1.2191778012     -2.1581335784
C     2.0927095187     -1.2195105437     -2.0896545981
C     -3.3406799654     -1.2730179172     1.0083123864
C     -2.9976120513     -0.0160023153     1.6902726759
C     -3.342053784     1.2313243224     1.0169569073
C     -1.7910992845     -0.0092392528     2.4776113292
C     -2.4521862921     -2.3698126542     1.1076170482
C     -1.2136364124     -2.2924479725     1.7946290262
C     -0.9160820543     -1.1610709529     2.5621563307
C     2.7551399787     -0.7073993154     1.8662814851
C     0.4581573317     -0.7154728329     2.634802692
C     1.5438378582     -1.4325887154     2.0611506693
C     -0.1550866794     -2.818346727     0.9311982909
C     1.180258977     -2.4771400196     1.0752006267
C     3.7237774984     -1.1255011355     0.8506223001
C     3.2274597088     -1.9626553427     -0.2088038509
C     1.9713633115     -2.5427773794     -0.1442459672
C     3.3893709442     1.1985887842     -1.4717916921
C     4.0224351193     -0.018441412     -1.1478273904
C     3.3788528236     -1.2220922955     -1.4851051603
C     4.384788836     -0.0121735229     0.2995515451


