52

 C     -2.292634784     -0.6393123822     2.1013383792
C     -2.4448962456     0.7095241598     1.9757678986
C     -1.3269622394     1.6012678403     2.2886670396
C     0.8246350986     3.0086373692     1.0565030463
C     2.3769668572     1.282874828     1.77195031
C     1.1204837179     1.898058674     1.9554516542
C     0.0129270946     1.0837352344     2.4658710381
C     0.2007833165     -0.3656760115     2.5629351011
C     -0.9888509278     -1.194908174     2.4975266129
C     4.0252456033     0.6686885992     0.2254328175
C     3.2344721989     1.7062493539     0.6355334625
C     -3.5391778317     0.3943774673     -0.2454724418
C     -3.3894551039     -1.0647512452     -0.0859565659
C     -3.1966456577     1.2634819873     0.8273490289
C     -2.9102725071     -1.5642176529     1.1291299474
C     -2.0969266347     -2.7387124535     1.1316461218
C     -2.8119793666     -1.589674902     -1.3274647167
C     -1.845997976     -2.6098682053     -1.300571822
C     -1.6258522953     -3.2967083714     -0.0495974791
C     2.5899825214     -0.1196253641     1.9522657776
C     1.4765647224     -0.9864963464     2.1966941233
C     -0.9313798591     -2.5051744405     2.008560798
C     -3.1068531786     0.740860368     -1.5480355041
C     -2.5516706494     -0.4635763089     -2.1573249382
C     -2.2318540377     1.8298306312     -1.790009687
C     -2.0983756297     2.8142592395     -0.7781847213
C     -2.6142789554     2.5059658395     0.5334945914
C     -1.0390254659     1.2772117793     -2.4375449291
C     -0.812809685     3.3960599314     -0.6047897547
C     0.3170070083     2.9180591512     -1.2664321882
C     0.2517100885     1.7663807793     -2.1621716619
C     -0.5501107282     -2.3849977362     -1.9226165292
C     -0.1958686133     -1.1153986396     -2.4848576243
C     -1.263581239     -0.1669190245     -2.6377417495
C     1.1849300238     -0.5987050815     -2.3832124226
C     1.4192308709     0.8462990125     -2.2417708413
C     2.6384722424     1.2870804599     -1.6228864808
C     -0.4888956363     3.3999438511     0.8567169472
C     -1.546140447     2.7664839755     1.5187669207
C     2.5502645532     2.278739939     -0.5290213387
C     1.418227346     2.9667711842     -0.2974073474
C     0.4268082652     -3.0669295451     -1.0730129006
C     1.7147558413     -2.5686872266     -0.9635354268
C     2.1748881309     -1.4794763488     -1.8267884488
C     -0.1945250742     -3.5268263991     0.1045505746
C     3.6739795327     -0.4972279562     1.0291994432
C     3.4188533512     -1.5296709344     0.1525658284
C     2.3305320549     -2.412791978     0.3355118502
C     1.4629823837     -2.2892691504     1.4810055845
C     0.2441539404     -3.0092821649     1.3778855852
C     3.3670916157     -0.9911673897     -1.2498511473
C     3.639062389     0.3652097779     -1.1860818147


