52

 C     3.3134176587     -1.700356731     -0.0781037091
C     3.3054005374     -0.7440911185     -1.1593632414
C     2.3811138269     -0.9414224526     -2.1967428046
C     1.3139585271     -1.9300392908     -2.0665117958
C     1.0998522182     -2.5922537882     -0.8286591289
C     2.1553787238     -2.4679806094     0.1639884769
C     1.8292060843     0.204708752     -2.8315666609
C     -1.1265240546     -1.6600534717     -2.4227556597
C     0.1670382439     -1.4036843905     -2.8213977569
C     0.4727714425     -0.0860983039     -3.2555038261
C     -1.3792261648     -2.5324156224     -1.2619202746
C     -0.5860831621     -2.7276238163     1.0283662165
C     -0.286652337     -2.8400151834     -0.3644463088
C     -2.6541080258     -2.2282295032     -0.7775253958
C     1.8703743459     1.4853051667     -2.2320286482
C     2.6546195468     1.6637175363     -1.0287126798
C     3.457217489     0.5741440027     -0.5822205894
C     2.079699381     2.5282243234     -0.0081510002
C     0.5090360409     2.0273344644     -2.3614388701
C     0.0016133206     2.8409274849     -1.3677765763
C     0.8590415014     3.1411961972     -0.2455178315
C     -2.1128271758     -0.5975196453     -2.4192293804
C     -1.7008148237     0.7793983639     -2.4507472045
C     -0.3651561122     1.004770346     -2.937915629
C     2.024739992     2.0875543328     1.4149461022
C     2.7331939755     0.9971083244     1.8264803289
C     3.6462449878     0.3597113621     0.8657150192
C     0.6712957526     2.3320457193     1.927078778
C     -0.0522146756     1.292122854     2.6301252391
C     -1.4619468948     1.2711357492     2.4574395803
C     0.0260027456     3.1136211394     0.9550064193
C     3.6605561867     -0.993357823     1.1366036655
C     2.6222213778     -1.26971826     2.1299347862
C     0.4461582551     -2.2671881605     1.9448703148
C     1.7813960164     -2.2797164708     1.5909072876
C     0.652280982     0.0187524543     2.8862080094
C     2.0611809988     -0.0611112164     2.6111710605
C     -0.0992455028     -1.1887486195     2.733652809
C     -3.351247989     0.1661779357     1.6092058283
C     -2.223563998     0.028447715     2.5055325644
C     -1.5289458769     -1.1837732732     2.5055343205
C     -1.3104341881     2.8932194603     0.5705724953
C     -3.1886266842     1.4362290324     0.8824585648
C     -2.106888422     2.1207753946     1.4421004376
C     -3.1295471184     -1.024393833     -1.5060685083
C     -3.7531935969     -0.1657460893     -0.6373269227
C     -3.2897240739     1.1957404682     -0.5242053552
C     -2.249333489     1.6900812563     -1.41466916
C     -1.3663383799     2.6717002597     -0.8697457919
C     -1.845834187     -2.2087912857     1.508499648
C     -3.7103136788     -0.8123909999     0.7146751703
C     -2.9161995476     -2.0174601365     0.6092075875


