52

 C     1.3121922922     3.1378854966     0.3533967168
C     2.403323394     2.4618475777     -0.2095750202
C     3.0674378867     1.4964292232     0.5989613287
C     0.7010881121     2.7492137625     1.5707222149
C     0.3140337889     0.7566302824     2.9848135495
C     1.2499802845     1.6171601084     2.3020869903
C     2.4420963744     1.023162124     1.8058110058
C     -1.0578690263     1.0523422961     2.9343375788
C     3.6333992903     0.3582443886     -0.0496497165
C     3.4057140436     -0.8455640281     0.767184564
C     1.9273651627     -2.737701937     0.2939627843
C     2.9439802467     -1.8953465187     -0.113881931
C     0.4536648956     -0.7140646737     2.9682451716
C     1.5640920951     -1.3307647806     2.3379278189
C     2.6237939373     -0.4585018781     1.8574896034
C     1.3273702497     -2.5599896216     1.6033713647
C     3.3159608317     0.0712990627     -1.3691799462
C     2.3852703966     0.8834063986     -2.1134405233
C     1.9950900138     2.1042562025     -1.5819819179
C     2.8731866243     -1.3116691576     -1.4423105662
C     -1.7246171036     1.9432926996     -2.0103251083
C     0.6209505699     2.5695156605     -1.7965206949
C     -0.3672364919     1.7493619269     -2.4454431047
C     1.3815681688     -0.0145627024     -2.6730385407
C     -0.9346490411     -0.6848901781     -2.8775985188
C     0.0454890869     0.386580943     -2.8775045523
C     -2.2788176487     -0.4025084531     -2.606938973
C     -2.6737490595     0.8677456121     -2.1463260006
C     0.8495989917     -3.0992265678     -0.6581016963
C     0.6766348811     -2.33047409     -1.8845864103
C     1.7106957039     -1.3794728726     -2.2224406385
C     -0.6288440802     -2.0100098565     -2.2946741502
C     -2.0189739899     2.5846602558     -0.7467408972
C     -0.9897036344     3.2074331104     -0.0409316232
C     0.266352036     3.3320619556     -0.6612481751
C     -2.9600258438     1.6996423963     -0.0320092616
C     -0.7452148466     2.8866351659     1.376717133
C     -1.60735667     2.0189785187     2.0282163575
C     -2.7020958057     1.3664421424     1.3039439524
C     -3.3926428413     0.6912005899     -0.9277989914
C     -3.337894212     -0.731604926     -0.5620602503
C     -2.1444428459     -2.2856946062     0.93131838
C     -2.9551908969     -1.1154459587     0.7795152695
C     -2.7423890085     -0.0350484887     1.7330035048
C     -1.5948854388     -2.9628306497     -0.2295075979
C     -1.7908417092     -2.4091298775     -1.5054543253
C     -2.7842557081     -1.4101981077     -1.6673787949
C     -0.2738153639     -3.4073222547     0.1111455435
C     -0.8816011426     -1.2673948148     2.8387934796
C     -1.1130149529     -2.3707650934     1.9968250708
C     0.0007753347     -3.0678336519     1.4993353553
C     -1.7909373316     -0.1774121555     2.7695631888


