52

 C     3.102675775     -1.381227927     0.8696026772
C     3.3720922618     -1.0789809412     -0.5043805556
C     2.0990254368     -2.2891736215     1.1625694596
C     2.0203752476     0.2784991198     2.3929279789
C     3.1019914409     -0.1338277451     1.5829914398
C     1.095280721     -1.9770047909     2.2035769764
C     0.9242089064     -0.6191486788     2.6774389186
C     1.4195449622     -2.9927765933     0.0965259456
C     1.4357093046     -2.4508929585     -1.2354207158
C     2.4800429423     -1.4767313776     -1.5082390745
C     2.2182116508     -0.2804289428     -2.3377370446
C     1.012398448     -0.1475283887     -2.9710620541
C     0.1903438071     -3.4601812418     0.6664167757
C     -0.9932657419     -3.3673993347     -0.0285413162
C     -1.0621809442     -2.7858695905     -1.3294503268
C     0.1533967953     -2.320250556     -1.9600696683
C     -0.0047634593     -1.2046184985     -2.8574849706
C     -0.5682274401     1.3537176461     2.7372627438
C     -0.4300064369     -0.0824643633     2.8253262635
C     -0.0203406939     -2.7710378566     1.9413454676
C     2.0843268048     2.069422034     -1.5168048327
C     0.7933275822     2.1897668791     -2.1471285983
C     2.846268487     0.885724604     -1.6995583457
C     0.3244398218     1.1539454305     -2.9682293724
C     -1.0596738221     0.873505592     -2.9636078549
C     -1.2545943618     -0.5630855807     -2.9776459659
C     3.4637397343     0.9403252063     0.6604291391
C     2.5937412486     2.0469464199     0.8974857106
C     3.6011340582     0.3833350259     -0.6126963506
C     1.9669302701     2.6605052299     -0.1951380623
C     0.6062010562     3.1782296622     -0.0499834488
C     1.7783786267     1.6869122899     2.0730209295
C     0.5231326411     2.195998598     2.2259363054
C     -0.0380466109     3.0944750886     1.1970343794
C     -1.4339987502     2.936532311     1.2384397794
C     -1.9869195883     1.4824455434     -2.0802296034
C     -1.5362438316     2.538955594     -1.1956058913
C     -0.136132322     2.8820905407     -1.2492396237
C     -2.2018239362     2.6407577978     0.0807868145
C     -2.8622331057     0.4156841552     -1.6032613016
C     -3.3855519773     0.4613696707     -0.3049367823
C     -3.1515119809     1.6174636248     0.4799317976
C     -2.8237090107     -1.9355422528     0.0349156072
C     -2.2831058419     -1.987905639     -1.3431082882
C     -2.3671387497     -0.85921123     -2.1466786802
C     -3.2798682464     -0.7253547698     0.562457122
C     -2.0292036246     -2.7644432215     0.8384513
C     -1.7642312494     1.9403657926     2.2757479258
C     -2.8278843618     1.1690327621     1.810591176
C     -2.7430300899     -0.2603305093     1.8296146092
C     -1.5992025928     -0.907011198     2.4335217244
C     -1.3640292601     -2.2535788103     1.9918597619


