52

 C     -3.6778368151     2.0082610922     -0.5258517083
C     -2.4202447509     2.5654623796     -0.6818213845
C     -0.3657591975     2.5191485427     0.6485471511
C     -1.7426155666     2.5207913799     0.6129387123
C     0.3655738636     2.5197684866     -0.6461448088
C     3.677612345     2.0080542573     0.527612881
C     2.4200657964     2.5651789135     0.6842273045
C     -3.8035202226     1.4813377659     0.8171344648
C     -4.3950890165     0.2021099127     0.741919923
C     -3.8018941906     -0.8505081836     1.4284674608
C     -2.5402927688     1.6940409362     1.5065485474
C     1.7168042128     1.8009652916     1.7058221477
C     0.299311742     1.7599566022     1.692075459
C     -0.3961070349     0.6122435613     2.2101596385
C     -1.8671603484     0.5917707198     2.1435349236
C     -2.5239878541     -0.6875450248     2.1095980521
C     -2.4199511915     -2.5658805836     0.6823156058
C     -3.6774848331     -2.0084082634     0.526388959
C     -0.3656552779     -2.519211895     -0.6483776819
C     1.7427095693     -2.5214679597     0.6103757504
C     0.3658733589     -2.5198615091     0.6462124329
C     2.4200843606     -2.5648289932     -0.6845897256
C     2.5242825925     0.6855888739     2.1097701796
C     1.8674849501     -0.5938051473     2.142650529
C     0.3964167901     -0.6143441505     2.2095197401
C     -0.2990651285     -1.7616057225     1.6905338677
C     -1.7165481147     -1.8026380946     1.7044418582
C     2.5404963985     -1.6954443266     1.504554603
C     -3.8034724828     -1.4816500056     -0.8165649712
C     -4.3950794293     -0.2023978185     -0.7412086062
C     -1.7425354425     -2.5209766682     -0.6124613757
C     -3.8022750089     0.8502468578     -1.4279346831
C     -2.5403371884     -1.6942226425     -1.5059944127
C     1.716668496     -1.8008982431     -1.7059663384
C     0.2991952191     -1.7600018974     -1.6920258851
C     -0.3964134835     -0.6123107077     -2.2100254648
C     -1.8673676384     -0.591952216     -2.1432757422
C     -2.5242953698     0.6872800134     -2.1091306741
C     1.7424447609     2.5215074784     -0.610450729
C     2.5240268366     -0.6853356197     -2.1102742554
C     1.8670738298     0.5938959362     -2.1430854954
C     0.3960850078     0.6143047064     -2.2095424601
C     -0.2994494278     1.7615254107     -1.6904241007
C     -1.7169160215     1.8024129707     -1.70409564
C     2.5401650637     1.695629893     -1.5049469997
C     4.3949167888     0.2031827537     -0.7418543563
C     3.8033588907     1.4825183986     -0.8159734178
C     3.8020728165     -0.8488534359     -1.4295004663
C     3.6776636508     -2.0075951288     -0.5282732648
C     3.8021175423     0.8492807008     1.4284824139
C     4.3951812444     -0.2026837471     0.7408834709
C     3.8036576772     -1.4820258504     0.8150585718


