52

 C     -2.4532547423     2.5708329462     -0.2147892237
C     -3.2715101713     1.6802756689     -0.8646161102
C     1.001618342     2.879948436     0.5067635988
C     -0.3424278226     2.9721024776     0.5588318874
C     -2.5700444505     -1.5860712457     -1.8662808666
C     -3.3033226273     -0.4470690925     -1.6920786426
C     -2.7450905802     0.8808536054     -1.9302762166
C     -1.1368363484     2.8268781985     -0.6601562168
C     -0.5710087292     2.1070331489     -1.7619473524
C     -1.3788170572     1.014620607     -2.3366896858
C     0.7405186875     -0.2092590435     -2.7782232693
C     -0.6479062697     -0.2340240828     -2.7020444774
C     -1.2279505591     -1.5256653967     -2.346728109
C     1.5259793449     1.0077459998     -2.5531589427
C     0.8989715659     2.0916812884     -1.8536270863
C     1.6712472768     2.6800534219     -0.7818760033
C     -1.3126333632     -2.8659127682     -0.42069222
C     -2.600380452     -2.3926572086     -0.6252410838
C     0.9323373922     -2.3691744228     -1.4915173184
C     -0.4745417369     -2.4631454588     -1.5841287104
C     1.5665800295     -2.7308077532     -0.2688547521
C     2.8240447533     -0.8679923233     -2.015120376
C     1.552465293     -1.3478040121     -2.321568589
C     -3.302864355     -1.6224046947     0.371290499
C     -3.9082558436     -0.4935580254     -0.3330982896
C     -2.6579403694     -1.3821358298     1.5958314268
C     -1.3913728795     -2.0301431657     1.8779765054
C     0.7181129796     -2.885268666     0.9486682678
C     -0.7109599871     -2.8198062404     0.8904519857
C     -2.5742772654     -0.0082978144     2.1212302312
C     -3.1925142623     1.0585073322     1.4387487076
C     -3.859560757     0.7748221585     0.1745176182
C     -1.2555122268     0.1673648132     2.690488602
C     -2.4167344691     2.2410148328     1.2412740146
C     -1.1023022581     2.3744651267     1.6799464678
C     -0.4664834872     1.3405730867     2.4638986011
C     0.7706260973     -1.2304932497     2.7475074194
C     -0.6083492232     -1.1315598111     2.7107967955
C     1.6121979527     -0.0329639199     2.6450246153
C     1.0041248523     1.2232679539     2.4094977831
C     1.7432463665     2.1498317585     1.546563954
C     1.4091593933     -2.2719897297     2.000581111
C     2.8323646463     -0.4265569448     1.9372230116
C     3.5164678924     0.4933806086     1.0798641003
C     2.9700873046     1.8204341608     0.9794608585
C     2.669139429     -1.7618260253     1.5010321803
C     3.9196419232     0.0755213608     -0.2168165836
C     3.4433654909     -1.1611312831     -0.7540632966
C     2.8009532242     -2.1019618439     0.116750603
C     3.5510541566     1.1646213169     -1.1702290386
C     2.8432579828     0.5933903241     -2.2338602227
C     2.9652799167     2.2104394198     -0.4565381622


