52

 C     -2.9050310933     -1.9164770307     -1.2717180808
C     -0.1353495161     -2.1825956567     -1.5361191617
C     1.2595595909     -2.2364533843     -1.5956358468
C     -2.1642757832     -2.587176001     -0.2382026087
C     -0.7779823449     -2.6790754163     -0.3184919979
C     2.0008950931     -2.8084206019     -0.4762661411
C     -1.9592922736     -1.5283584298     2.0222362298
C     -2.7878467614     -2.1675624791     1.0091135816
C     -0.3199147274     0.672750134     2.6423116645
C     0.3044236757     -0.5860866189     2.4892297895
C     -0.5685087465     -1.6696559408     1.9770546817
C     0.0059123386     -2.5303173221     0.9260700518
C     1.3803742266     -2.6145688805     0.8371643335
C     -0.7997241494     -1.1317694346     -2.2789104999
C     -2.2161171102     -1.0429747109     -2.1542385013
C     -2.8786873595     0.2633420072     -1.9810439768
C     -0.0045787499     0.0742931261     -2.5839690749
C     -0.71097297     1.3168378495     -2.4980686943
C     -2.105175233     1.3825261026     -2.012075639
C     3.3727284972     -1.302054418     -1.466739443
C     2.0659795277     -1.1803692858     -2.1225840209
C     1.4500873205     0.0877063071     -2.4002663347
C     3.9095353995     -0.1720320171     -0.8755830865
C     3.2942436797     1.1170038123     -1.0340225256
C     2.1197878703     1.2905580875     -1.8706651058
C     3.3106797583     -2.3689298253     -0.4668034552
C     -3.8923624095     0.1172495267     -0.9380355127
C     -2.1529670795     2.366198117     -0.9104452119
C     -2.7434973992     1.9482934452     0.3518721492
C     -3.6964378726     0.8721392111     0.3111839502
C     -1.8717101099     2.0328434247     1.4920275137
C     -0.9235863818     3.0190835999     -0.9325967394
C     1.2905082936     2.4046729974     -1.5347026583
C     -0.0519254959     2.4315552561     -1.9687014453
C     -4.0729528409     -1.2483342095     -0.662519507
C     -3.9679924626     -1.4257636667     0.7481878222
C     -3.7050140748     -0.1187489578     1.3352406573
C     -1.7356631841     0.8744029182     2.3610748805
C     -2.5731776544     -0.2137586482     2.2272905621
C     1.2892840421     2.9733777162     -0.1853233613
C     -0.1040666696     3.2023375232     0.2133608579
C     -0.562893416     2.6478658436     1.4200916196
C     2.2023107164     2.4872662943     0.7412833268
C     3.2789580038     1.6981496794     0.2636931682
C     4.0916406122     -0.4415318961     0.5944516598
C     3.6081327616     0.6730352777     1.2616352908
C     3.5108203628     -1.7039853061     0.8299573101
C     0.3697924392     1.8780736774     2.2426781706
C     1.7194438958     1.8390067197     1.9638567408
C     2.4824061433     0.6112172962     2.1543270624
C     1.7631582579     -0.6363185357     2.2842314254
C     2.3070413625     -1.7884472762     1.6141041307


