52

 C     -3.225111464     -0.6435014173     -0.9639520971
C     -2.4668743519     0.0255664948     -2.013220556
C     -3.7185895975     0.1169579283     0.1402175776
C     -2.239681647     1.4454943895     -1.8860731551
C     -1.4183744045     -0.7210193441     -2.6276711114
C     -1.1975490012     -2.0986029514     -2.2489577032
C     -0.93561731     1.9903447124     -2.1113357841
C     0.1735666585     1.2047331164     -2.576689371
C     -0.1339441259     -0.1388271612     -2.9327984099
C     2.530387958     0.481780845     -2.082303888
C     1.5508626713     1.5424751935     -2.1374113801
C     1.7007505251     2.5856396996     -1.1496778288
C     -1.7590302931     -2.6429041427     -1.0472674249
C     -2.7577382646     -1.9232764373     -0.4187457656
C     0.5969095411     -2.8159339146     1.7479953975
C     -0.6348093216     -3.0799858969     1.1139726772
C     -0.6563041893     -3.2556796296     -0.2786949098
C     0.1824525002     -2.3698237327     -2.2506628559
C     0.5629689921     -3.040557632     -1.0279344421
C     -2.7470591233     -1.7909707253     1.0546361913
C     -3.2911071495     -0.5219880525     1.3697333737
C     -1.6562559574     -2.2376759067     1.7670568939
C     -2.5512763034     0.4637040674     2.1083052195
C     -2.8076460763     1.7307081734     1.4877113653
C     -0.9424072029     -1.277337615     2.6336908367
C     -1.2458448457     0.1259447503     2.6215766026
C     1.2463873437     0.6028857705     2.5301885997
C     -0.1377303102     1.0919074496     2.4771729913
C     -0.4138255809     2.3291717414     1.7234328187
C     -1.7188575386     2.5980537155     1.1974581738
C     2.3106575261     1.379294697     1.9223226693
C     0.396074216     -1.7027087594     2.6598670558
C     1.4887798521     -0.8124678089     2.5872525653
C     -3.5464277085     1.5086372092     0.2585352557
C     -2.8360463406     2.1784340993     -0.7668592537
C     -1.8631464209     3.0312071684     -0.1925263587
C     0.5109745733     3.13479382     -0.4984686364
C     -0.7254264851     3.0026132361     -1.0492099914
C     1.9771072699     2.5508175129     1.1601279492
C     0.6645688243     2.9314844682     0.9637974628
C     2.4568289131     -1.448912906     1.6960246372
C     3.3799770289     -0.6768841717     0.9948265885
C     3.3645837553     0.7346275471     1.2172742997
C     2.6572236468     -1.7266026606     -1.1206071053
C     1.7983291521     -2.666688611     -0.3985739838
C     1.8024853487     -2.5802128787     1.0359116014
C     3.5140333061     -0.8884524753     -0.4280540755
C     2.1032425724     -0.9072852589     -2.2366582869
C     0.8632455359     -1.1984986405     -2.7341551263
C     2.681860286     2.4960141271     -0.1370463382
C     3.5796726726     1.4251115393     -0.0782062807
C     3.5327103443     0.4584052581     -1.075316684


