52

 C     2.6154990858     2.1038026498     -1.173942065
C     3.2397808077     1.7825472674     0.0874750632
C     2.4892531062     2.014680366     1.2794716476
C     1.3052316944     2.541489294     -1.2598331986
C     -0.8178834878     2.9098337552     -0.1431182992
C     0.5851054916     2.9093434557     -0.0526186368
C     1.1628302126     2.609817195     1.2085405357
C     -2.8341053798     2.189086872     -1.0105968417
C     -1.4953641435     2.4229574393     -1.3318588101
C     2.4326147095     0.994872866     2.2682783928
C     0.3116563774     1.9719124804     2.2222615716
C     1.094189079     0.9673922085     2.8329467886
C     2.8234721135     -0.3332291059     1.9649283352
C     3.6245467645     -0.5708260829     0.7989622158
C     3.8845294049     0.5134958067     -0.0778430097
C     1.7128094209     -1.2085611592     2.300142732
C     1.3848696636     -2.3103109491     1.4787212498
C     0.0169732701     -2.7171317906     1.4451330742
C     -1.66800975     2.5757150392     0.9862151666
C     -1.0925154328     1.8051465994     2.0536783927
C     -1.6915908736     0.4904074459     2.3507866511
C     -0.7621420864     -0.6402652525     2.6073427667
C     0.6257311049     -0.3627627279     2.8365751222
C     -1.0436527636     -1.9164621489     2.042636051
C     3.23766762     -1.291163297     -1.4335357962
C     3.6361741422     0.0424467191     -1.4764176522
C     2.1917467845     -2.5224427024     0.2637214018
C     3.2887193201     -1.7265561127     -0.0087242191
C     2.8094585574     0.9708611116     -2.109423513
C     0.1364212414     -2.9592106682     -1.0264591834
C     1.4611246775     -2.6728586671     -1.0219451496
C     1.9924853293     -1.6981134666     -1.9700994472
C     1.0770727171     -0.7500860228     -2.5720778073
C     1.5395843568     0.6062157315     -2.6233683192
C     -0.5373345582     -3.2377649031     0.2373915654
C     -0.7610991051     1.5037747908     -2.2158404616
C     0.6120317221     1.6769706185     -2.240755459
C     -3.4506474151     0.9905439682     -1.4030569528
C     -1.3254553323     0.1515510931     -2.4542691706
C     -0.8037821983     -2.1948451966     -1.8470138295
C     -0.3775279109     -0.9863995665     -2.4620563008
C     -2.6659781579     -0.0752515305     -2.0448619935
C     -4.1767611373     0.4515666617     -0.2822702806
C     -2.0874880624     -2.2985649556     -1.186230188
C     -3.7922213406     -0.8794637866     -0.1675800376
C     -3.0290937264     -1.2923132658     -1.3453933897
C     -3.1838109316     -1.1128886962     1.1473074891
C     -2.2542615044     -2.1366084052     1.2691974328
C     -1.9024424772     -2.9219889362     0.1140769598
C     -2.9529247613     2.2825327522     0.4757779452
C     -3.623836586     1.1460943665     0.9037545357
C     -2.9616696525     0.1910108423     1.7658669253


