52

 C     -2.3328826256     -2.6714837789     0.4705129716
C     -3.0303716177     -2.2292315442     -0.6192420104
C     -0.9274126071     -2.873795136     0.4160491684
C     -0.2006928647     -2.6711382598     -0.8200691372
C     1.1816927055     -2.6355706289     -0.6819716084
C     3.137390799     -2.1341867886     0.4251176885
C     1.8106113441     -2.5507221712     0.6284232942
C     -3.9802138541     -1.1817918793     -0.1686706289
C     -3.9869264462     -0.191866318     -1.1415346818
C     -0.8325863317     -1.8198861793     -1.8206335236
C     -2.2704198038     -1.7059772417     -1.7695509067
C     -2.8761281879     -0.4943530184     -2.1032725734
C     -3.8783834796     1.1687962884     -0.7932007578
C     -2.7230838326     1.7288318425     -1.558043273
C     1.5066842496     1.6526522256     -1.8598328595
C     0.0984576484     1.7559075641     -1.8885527381
C     2.0419344596     -1.9115718872     -1.604277827
C     1.4346202384     -0.7874568502     -2.2650052802
C     -0.0223108732     -0.7062059595     -2.3251900284
C     -0.6551822743     0.6047930703     -2.3595608057
C     -2.0936209613     0.6846458078     -2.2901927963
C     2.2001723696     0.4410177636     -2.2472044095
C     -3.6459148394     1.516370125     0.5407009132
C     -3.3962666259     0.5083969071     1.5504837239
C     -3.6369665     -0.843280548     1.2099847111
C     -2.5447225906     2.4827021523     0.5680583389
C     -0.3443865387     2.4505393786     1.5058760386
C     -1.7015880654     2.1563250549     1.6331753632
C     -0.5463824786     2.6539204097     -0.9169803635
C     -1.9622793863     2.6041641103     -0.7512737126
C     0.2199946357     2.9216955466     0.2614400838
C     -2.6583362357     -1.8092736525     1.6310102014
C     -1.4305045242     -1.4550711385     2.1985951146
C     -1.1027267801     -0.0775819884     2.4930916514
C     -2.1196166189     0.8675422232     2.1974771481
C     1.0000670282     -1.96788725     1.6599321765
C     -0.3726576587     -2.2799016493     1.5823841033
C     3.6670511891     -1.0499857058     1.1671186622
C     1.4151440462     -0.6872399918     2.2606314504
C     0.6647173237     1.6503750911     2.1471593828
C     0.3423289528     0.3111826465     2.4785391113
C     2.7380141833     -0.2452459168     1.9843654499
C     4.458795464     -0.2190175793     0.3190538197
C     1.9339881426     2.0095357413     1.5481009508
C     3.9693407976     1.1129355643     0.4984223907
C     3.0026472606     1.1324479546     1.6026680156
C     3.5469083545     1.6418090416     -0.7439928075
C     2.3220499361     2.3350600324     -0.8512042617
C     1.6314755811     2.7251310932     0.3146314901
C     3.3176366385     -1.7972329911     -0.9811260351
C     4.1127938424     -0.6135769791     -1.0504179627
C     3.5180674122     0.493765397     -1.6820224253


