52

 C     -3.7783740001     -1.2164954127     -0.409965563
C     -3.6865996707     0.3894952837     1.3795268166
C     -4.2692334609     -0.0155529493     0.1672967948
C     -3.2927092604     2.0941057771     -0.1798980596
C     -4.1149982555     1.0853027688     -0.8048011151
C     -0.8456359485     2.5960307248     -0.3154718748
C     -1.8633657722     1.8416936897     1.7991326553
C     -3.1210231489     1.758868894     1.1700875021
C     0.7331046862     0.9886557305     2.5424883804
C     0.5820017514     2.1404321113     1.6772779889
C     -0.7356090392     2.4150259142     1.128124315
C     1.7122869403     2.5133748444     0.9244920623
C     -3.3493504728     0.5712799605     -1.8685948196
C     -3.2358341729     -0.8490544271     -1.7410386541
C     -2.0798715299     2.2989759292     -0.9512049773
C     -0.632125418     -2.9219307765     -0.5328953116
C     -1.8534548725     -2.4185027662     -0.8286721943
C     -2.0297654879     -1.505705584     -1.9663737445
C     -2.10434165     1.3158189343     -2.0167464151
C     -0.9035771893     0.6671129872     -2.4032491095
C     -0.8549580845     -0.8020757443     -2.4309347811
C     1.6148849894     -0.7061277786     -2.4086520335
C     0.4218306951     -1.4681726457     -2.2602100326
C     0.5045185875     -2.6316981012     -1.3983743089
C     0.3261165719     1.4014319703     -2.1748834656
C     2.7835618604     1.2609210016     -2.020065129
C     1.5507718584     0.7448013504     -2.4921965012
C     1.5986317271     2.7327547215     -0.5085484934
C     0.3528556094     2.4219071005     -1.1213291752
C     2.8345437134     2.2908087595     -1.0940505373
C     -2.6835897449     -0.3764204234     2.0334958724
C     -2.2232402848     -1.6421213157     1.501988692
C     -2.8003525606     -2.0127484847     0.2273628757
C     -0.1555590701     -2.9317929267     0.857222026
C     -0.8428628536     -2.0778212546     1.7998204302
C     0.0180621378     -1.2464831706     2.5774607745
C     -0.3844028694     0.1436643632     2.7877539843
C     -1.6611288205     0.5720370967     2.4752854101
C     1.2435402072     -2.9739254837     0.7890178023
C     1.6579663931     -2.8386032953     -0.6212914258
C     3.1683025462     -1.6283245981     0.6638707435
C     2.0893984375     -2.1235906669     1.5434740223
C     1.4535732642     -1.245770378     2.4405179081
C     3.7421143986     -0.3736998054     0.87795202
C     3.6152193994     0.1055807318     -1.5262987987
C     2.8697473056     -1.0790086814     -1.7467110336
C     2.8189749339     -2.0457683226     -0.7068362112
C     4.1301195806     0.4329391223     -0.271996588
C     3.7157856263     1.8099801915     -0.0191039215
C     1.9201194281     0.1351691158     2.494380715
C     3.0425830482     0.5433656283     1.8000444504
C     3.001307941     1.85990029     1.1622700328


