52

 C     -2.235749956     1.0260678735     2.0093241825
C     -1.0319484643     2.6754585297     0.5779445621
C     -2.2727572413     2.1107283732     1.0298613371
C     0.0473132052     2.5858452027     1.4966448893
C     0.1033086442     1.5046697848     2.5022540978
C     -1.0140340717     0.6513468192     2.6594274898
C     -0.719550955     -0.7422948786     2.8436447313
C     -1.6909170574     2.0745721317     -1.7081886788
C     -0.693257968     2.6017552961     -0.843976806
C     1.3416396473     2.8617704244     1.0780248983
C     2.377690506     0.8107606271     -2.2150891546
C     1.0333698841     1.3383822086     -2.1877953704
C     0.704273236     2.4229015089     -1.2510365222
C     1.7098655023     2.8067322072     -0.299163716
C     -3.2110395704     0.0319619173     1.5765008701
C     -1.6514028059     -1.6962567565     2.3196985521
C     -2.817405236     -1.3311835362     1.5966687143
C     0.4654602597     -2.4895235088     1.8485606484
C     -0.9248331239     -2.7107015406     1.6232550862
C     1.3486925437     -2.7524620586     0.8363520555
C     1.4525918004     1.0249023103     2.5492458498
C     1.7401820985     -0.3877640952     2.4122012526
C     0.6227584018     -1.2385375311     2.6175819947
C     -3.9517401489     -0.1848230338     -0.7511770242
C     -3.1849420943     -1.4377383426     -0.840522654
C     -3.9157701072     0.5485093483     0.4504833412
C     -2.7492028362     -2.0561169649     0.3236145025
C     -1.4832258144     -2.7903803823     0.3101662508
C     -0.5998273275     -2.7299764805     -0.8078161309
C     0.7950279344     -2.9660270667     -0.5249616919
C     -2.477464173     0.0357804451     -2.4684977895
C     -3.5925544933     0.6686607434     -1.8551846609
C     -0.0351575327     0.4375735526     -2.5977175839
C     1.4741152927     -1.4971420639     -2.360857826
C     0.1429550928     -1.0180193955     -2.5005432703
C     2.5618486872     -0.579952375     -2.3367737549
C     -0.9335709037     -1.8114839641     -1.9062658882
C     -2.2545714792     -1.2866095386     -1.9544127465
C     1.7683737308     -2.5279110984     -1.4049939426
C     -3.059296268     1.8752962648     -1.2662965287
C     -3.3231738848     1.858241171     0.1205397577
C     -1.3502409897     0.938849505     -2.5276108413
C     3.5482249458     -1.0249398682     -1.2994035585
C     3.9447580109     0.0815600725     -0.5633638741
C     2.9711161377     -2.1073033388     -0.645116946
C     2.2602542762     1.9806534394     1.8339994196
C     3.2737960384     1.593108101     1.0152447745
C     3.6409343054     0.1901152787     0.8328938419
C     2.8440495345     -0.8231726047     1.4896119594
C     2.612156251     -2.035665771     0.7290156793
C     3.3579603052     1.2743156075     -1.2462756097
C     3.0309182305     2.2154874506     -0.3196781686


