52

 C     -1.1091477255     2.4216819964     -1.3363781186
C     -2.4313742642     2.6045364136     -0.8483527734
C     0.0325122833     2.5746670896     -0.4811159009
C     1.3125061757     2.1836696389     -1.020472356
C     3.6869862415     1.7117355636     -0.4941182867
C     2.4274695474     2.2709210675     -0.1482686972
C     -3.7955761221     1.8050633219     0.8318590003
C     -2.6839157237     2.6698673856     0.5294021322
C     -0.2141871591     2.4283954303     0.9334920672
C     -1.5567798244     2.3257751826     1.3888908926
C     -3.2992370298     0.8458064062     1.7433949481
C     -3.5742036329     -0.4972835787     1.3065375213
C     -2.6694512752     -1.5065812697     1.6862333485
C     -2.4148298837     -2.5656172264     0.7625971563
C     -1.9333824839     1.1825564064     2.1553034861
C     2.1514488997     1.9315045893     1.266890936
C     0.8018150699     1.712746059     1.6855823986
C     0.4584507988     0.4865724364     2.3336555701
C     -0.966695501     0.1578415561     2.4553177719
C     -1.3822291248     -1.1833966927     2.3077349122
C     -4.0240332108     -0.3815819212     -0.092245988
C     -2.7482132162     -2.4167319895     -0.5818693952
C     -3.4374165622     -1.238975133     -1.0504304018
C     -3.3072763583     1.5605530227     -1.4224330839
C     -2.465984947     0.7112524923     -2.2058810827
C     -4.0914849384     1.0441384856     -0.3759462522
C     -2.5832576896     -0.6761945883     -2.094008467
C     -1.3618642505     -1.4948608846     -2.1754198486
C     -1.1111682948     1.2855311352     -2.2170759861
C     0.0750690016     0.5139567422     -2.3876353431
C     -0.0466315609     -0.9225666305     -2.3237300132
C     1.104814177     -1.6628473399     -1.8112866456
C     3.4534858959     -1.4406856945     -1.0363717123
C     2.3573559507     -1.0589975784     -1.9322472486
C     -1.0000042037     -2.9497340155     0.8574098329
C     -0.4353294182     -3.0014494276     -0.4523015143
C     -1.5174333668     -2.6045130901     -1.3389279066
C     1.6888130865     -2.3038740732     0.5128197286
C     0.8733036719     -2.5760221244     -0.6692933968
C     3.0314421403     -1.8899646914     0.3164196531
C     2.5172658873     0.3632733088     -2.1564868258
C     1.3433310638     1.1523929289     -2.048653845
C     3.7587172231     0.7467561873     -1.5154393219
C     4.4323729249     -0.4582392574     -0.9616905879
C     4.617923301     -0.2109343048     0.4703663062
C     -0.3812016071     -2.1412590335     1.8201468239
C     0.995890548     -1.8312800815     1.6989995817
C     3.6833049938     -1.0644832072     1.2411916513
C     3.1864246391     1.1200249946     1.7493524243
C     2.835975373     -0.2367200497     2.1082684383
C     1.4778983117     -0.5790030951     2.2799856936
C     4.2377521686     1.0825771381     0.7362287242


