52

 C     2.3702920414     -0.4292050598     2.2161388391
C     2.5679976814     1.0028053738     2.2605448354
C     -0.6277201671     -2.6028970687     1.5627060945
C     0.7721110738     -2.2001441226     1.820028298
C     1.0639870084     -0.9637266169     2.4336286054
C     -1.6890349606     -1.8187711758     1.9804744029
C     -1.3976019201     -0.5466916587     2.6455080013
C     -0.0720456154     -0.0316327099     2.6656403226
C     -0.6759746771     -3.1491413136     0.2604299748
C     3.6446579437     1.3596235599     1.4156119268
C     1.7054182703     2.5482323838     0.7337993998
C     3.0810447769     2.2595492135     0.4018386671
C     0.6894355394     2.5919266231     -0.2462710375
C     -0.6895563409     2.5920052494     0.2450695124
C     -3.0811567236     2.2592171019     -0.4028948849
C     -1.7055402461     2.5478172696     -0.7349868736
C     -2.3273630947     1.6179657614     1.8294498324
C     -0.9912244509     2.0527096061     1.5712136998
C     -3.3859699455     1.7928743744     0.8692680207
C     0.0939829136     1.3405609239     2.2352296942
C     1.4109958413     1.7875526069     1.9456935137
C     -2.4757417706     0.3027982519     2.3625012981
C     4.0695312114     0.1876694778     0.732419229
C     4.0690672317     0.4727733288     -0.6773076264
C     3.3858933575     1.7926380817     -0.8701031428
C     0.9911243102     2.0520307828     -1.5721751198
C     2.3272842191     1.6172279917     -1.8302072599
C     3.4884287843     -0.4152006258     -1.5580798925
C     2.4757294835     0.3018299077     -2.3626484238
C     -1.4110797426     1.7865902548     -1.9465192203
C     -0.0940428797     1.3395183431     -2.2358590947
C     2.8678030332     -1.6446485794     -1.1395713448
C     2.7605121665     -1.923256855     0.2778255671
C     3.2730276309     -0.9382371131     1.197024282
C     1.5906875058     -2.6458616892     0.7035523116
C     1.6891228378     -1.819603095     -1.9796329013
C     0.6278528892     -2.6035881107     -1.5614914926
C     0.6761231952     -3.1492365776     -0.2589707129
C     0.0720441054     -0.03286845     -2.6656279334
C     1.3976305633     -0.5478368761     -2.6452602305
C     -0.7720011242     -2.2010230676     -1.8190073844
C     -1.0639403922     -0.9649080266     -2.4331747744
C     -2.5680508409     1.0016507912     -2.2610220262
C     -2.3702649072     -0.4303375482     -2.2159268424
C     -3.6447231506     1.3587956195     -1.4162434889
C     -4.0690918934     0.4729017351     0.6770939548
C     -4.0695324379     0.1871408565     -0.7325036173
C     -3.488396522     -0.4146385125     1.5582724668
C     -1.5905627739     -2.6462681216     -0.7023261568
C     -3.2729749207     -0.9389428019     -1.1965853732
C     -2.7604170455     -1.9235152973     -0.2769333334
C     -2.8677370716     -1.6442643968     1.1403374386


