52

 C     -0.5298853852     2.8502377363     1.2429595962
C     -0.9726395179     1.6698096417     1.9583247597
C     -2.3372154319     1.3214998503     1.7491646711
C     -2.8392667568     -0.0134244819     1.8125079068
C     -1.9033285825     -1.0869659937     1.9587686045
C     -2.1887534355     -2.2747166679     1.1752633878
C     -1.0671347532     -3.0043879244     0.6648212969
C     0.1528051917     -2.9197619392     1.2922677814
C     0.0160489949     0.6388645964     2.2738010226
C     -0.4790973351     -0.7569234804     2.2894781522
C     0.4848016766     -1.7718565614     2.1327492132
C     0.8191285656     3.0948262022     1.1095002171
C     1.8270238251     2.2192137189     1.5870849832
C     1.4574790093     0.9158676615     2.1018978211
C     -3.985851254     -0.0890874155     0.8793351363
C     -3.1518019896     -2.1990015594     0.0963367962
C     -3.9893093804     -1.1164665477     -0.0688789461
C     -1.0953462272     -2.8753540624     -0.7984966583
C     -2.3342755733     -2.3050295619     -1.1002850376
C     1.2944122597     -3.1955104287     0.5135686016
C     -2.4604280731     -1.1246726223     -1.8996181807
C     -3.6301697662     -0.4688037039     -1.3904819841
C     -1.2520232032     -0.3980055747     -2.2383948467
C     -1.2839288253     1.0546859352     -2.0787990263
C     1.2747477838     1.1208750955     -2.1212740723
C     2.4654238082     1.7869965227     -1.6231644406
C     1.2865017831     -0.3598068247     -2.221205505
C     0.0369667736     -1.098776009     -2.1412257288
C     2.5348564482     -1.0735332027     -1.8832074056
C     1.2816109791     -2.9304681988     -0.9043257521
C     0.0624634756     -2.4322984069     -1.4772732773
C     2.5022865627     -2.3229697537     -1.2241745994
C     -4.0835261667     1.1738464866     0.1824099162
C     -3.6704859378     0.9031802155     -1.2229606241
C     -2.4857948169     1.6568092097     -1.5274306667
C     -0.0222146688     1.7870329964     -1.9106772327
C     -2.3342582822     2.5630170202     -0.3942954649
C     -3.1216374615     2.0174758821     0.6934667034
C     -1.1214232441     3.0670230984     -0.0953003098
C     1.1054317048     3.3368801674     -0.3404954141
C     -0.0485915112     2.9533794989     -1.0539669025
C     2.3268165273     2.8217714688     -0.6426485072
C     3.6373003378     -0.34228947     -1.28564637
C     3.5683447491     1.0018436997     -1.123560862
C     3.2943003144     -2.1941848565     0.0376476875
C     3.9181478749     -0.9687669091     0.0441666421
C     2.4437300451     -2.5462766786     1.0967485176
C     2.9297490033     2.3330026311     0.6349411633
C     3.7198611963     1.2781174245     0.3370536614
C     3.594682636     0.0143450502     1.0316931914
C     2.4315069982     -0.1881140972     1.9042041944
C     1.921959055     -1.5231988776     1.96762619


