52

 C     1.3361459195     -2.6004335153     1.2569166819
C     2.4447047726     -2.4390387608     0.4516057788
C     3.3698979628     -1.356264549     0.7641106193
C     0.0818901955     -3.0783093641     0.6952766371
C     2.260543779     -2.4190545204     -1.0084200891
C     0.9898190675     -2.595528587     -1.5305432847
C     -0.0827432536     -3.0780210774     -0.6937907375
C     3.9015572606     -0.815931935     -0.4191673659
C     3.0722820808     -1.3191931916     -1.4916598554
C     3.7641471803     0.6093317307     -0.359790642
C     3.3020492387     0.9416469432     0.97495451
C     2.4692852774     2.0574268468     1.1536342476
C     2.8915902224     0.9862825413     -1.4099423534
C     0.8134042699     2.0818064211     -2.1422866822
C     1.9665662367     2.0943148043     -1.2805468729
C     1.8411984265     2.718964031     -0.0050644476
C     0.4082237384     -1.591094775     -2.4313165241
C     1.1336131849     -0.3486924887     -2.6725620069
C     2.4741101344     -0.23496997     -2.1564876222
C     0.3626177139     0.8220087499     -2.7988397216
C     1.4989972759     2.009105362     2.1704502615
C     -0.545243718     3.2481900935     -0.4361270658
C     0.5463900799     3.2483123679     0.4341316044
C     0.3384224742     2.7815774632     1.7743670511
C     -0.3377291851     2.7815319562     -1.775964502
C     1.0743370627     0.7825897691     2.7682380573
C     1.7962060452     -0.4227479068     2.4578246297
C     2.9990116931     -0.2981288194     1.679005703
C     1.0073969043     -1.6196211392     2.3071260801
C     -0.3620720728     0.8217293644     2.7981101928
C     -2.4744441247     -0.2350811932     2.1569329332
C     -1.1338094388     -0.3488548239     2.6725705784
C     -0.4089129818     -1.5914429927     2.4322589846
C     -1.8406697542     2.71908605     0.0033947319
C     -1.9658227666     2.0945314326     1.2788283397
C     -0.8124134955     2.0820479687     2.140295366
C     -2.8915946283     0.9872180161     1.4092813271
C     -3.0728683377     -1.3191232438     1.4934478577
C     -2.2614104582     -2.419076525     1.009995968
C     -0.9905553318     -2.5961068578     1.5321593036
C     -3.9010827734     -0.8151075727     0.4194981573
C     -2.4693777726     2.0585459543     -1.1549791528
C     -3.3022117575     0.9431576558     -0.9760601748
C     -3.7628590719     0.6105143515     0.3597501912
C     -1.4988459262     2.0098645834     -2.1722924983
C     -1.0076434863     -1.6190173889     -2.3058397212
C     -2.9990064914     -0.2967966495     -1.6786357316
C     -1.7965367176     -0.4219195312     -2.4572834724
C     -1.0745885496     0.7832570176     -2.7685501565
C     -3.3701959194     -1.3552838846     -0.7627790549
C     -2.4450994025     -2.4383168849     -0.4499379947
C     -1.3366307818     -2.5998633266     -1.2552980626


