52

 C     3.2481944123     -1.7333739435     0.1073028494
C     3.8481562364     -0.4927471255     0.5632783972
C     2.2429350668     -2.3458970442     0.9029867297
C     1.0964945664     -2.964302926     0.2614079472
C     -0.5599861038     -2.6312064302     -1.5325619635
C     0.8170488427     -2.7040917288     -1.1185799256
C     1.7270531599     -1.6613854197     2.0653052682
C     2.1877087636     -0.3743548043     2.3852362417
C     3.3096420039     0.1598077779     1.6471917867
C     0.3040308437     -1.9704932531     2.1967344647
C     -0.6482983568     -0.9760860458     2.5592636444
C     -2.0199366327     -1.1996723646     2.1597538933
C     -1.3319806817     -3.0931737579     0.7437388896
C     -0.0170107246     -2.961030105     1.1966227907
C     -2.347682022     -2.2969201935     1.3510564214
C     -1.5857297492     -3.0404859125     -0.6775184589
C     2.9859034743     1.5532335903     1.2781945339
C     3.2488231277     1.732380607     -0.1084155686
C     2.2430093457     2.3446744987     -0.9037158609
C     1.7312027289     1.8634819262     1.8340501621
C     -0.558765327     2.6316964015     1.5331790052
C     0.8178969658     2.7040403788     1.1186573888
C     1.0968499593     2.9641988175     -0.2615555696
C     -0.1685889906     0.4218146651     2.6699014633
C     1.2317616244     0.6881236516     2.558984268
C     -1.0501147261     1.4696542859     2.302479316
C     3.309257084     -0.1608647396     -1.648197905
C     2.1870767428     0.3735117019     -2.3857615426
C     3.8483606728     0.4915542076     -0.564591626
C     1.7271804871     1.6612284778     -2.0661441403
C     -1.0509323159     -1.4692872615     -2.3023505322
C     1.2311342665     -0.6883205727     -2.5597188558
C     -0.1691821732     -0.4218646773     -2.6697651407
C     -1.3313599458     3.0938293808     -0.7433441491
C     -0.0164108985     2.9613632237     -1.1961097725
C     0.3042384844     1.9703213342     -2.1967957817
C     -2.3478559919     2.2983857338     -1.3511365279
C     -2.020172895     1.2007675298     -2.1586972218
C     -0.6483028865     0.9764822259     -2.5586089073
C     -1.5844980207     3.0401867631     0.6775816838
C     1.7306139021     -1.8642267693     -1.8344651064
C     2.9856493862     -1.5548029646     -1.2795608617
C     -2.7709754812     2.2185313656     0.9185376358
C     -3.2839234725     1.8114775307     -0.3045159688
C     -3.623554595     -0.4522563712     0.5556704362
C     -2.8916422735     -0.0732481539     1.7572515031
C     -2.4303378508     1.2339511758     1.9162887215
C     -3.6232816209     0.4529340481     -0.5546424234
C     -3.2848411183     -1.8106969794     0.3054959166
C     -2.8922647429     0.0740087609     -1.7563804135
C     -2.430971684     -1.2331476481     -1.9153669464
C     -2.7715508665     -2.2176828679     -0.9176701885


