52

 C     -3.0760342371     2.2349243497     0.616844144
C     -1.7811272261     2.8220526368     0.3179499074
C     2.2254383186     2.1705280147     -0.7500438572
C     0.8855492367     2.445997861     -0.4105666045
C     -2.8999812736     1.3196701145     1.7204028923
C     -3.5321023404     0.0466089285     1.6608932919
C     -4.2263531253     -0.3421035548     0.441329781
C     -1.4974725482     1.4115374947     2.1367873763
C     1.483384289     -0.9095943864     2.1085092507
C     2.8751890147     -0.8469153648     1.8604061417
C     0.7446728394     0.3200154762     2.3170724326
C     -0.7176783917     0.2786273235     2.4657537288
C     -1.3793252565     -1.0039016931     2.3947376685
C     -2.7356959904     -1.0863168041     2.05143732
C     2.761773841     1.5574775871     1.5589258168
C     1.3785858299     1.533720213     1.8246431941
C     3.5550758687     0.3992653076     1.7968377175
C     0.5096653876     2.361401997     0.9844613425
C     -0.8521062944     2.424533558     1.2954605992
C     4.3147179992     1.3110484618     -0.2281228996
C     3.2206466151     2.08928607     0.252294565
C     -2.8885982425     -2.1421172752     1.0331985708
C     -3.7141319401     -1.6652951533     0.0309388988
C     -1.5928615872     -2.6858342437     0.7633985177
C     -1.1642721623     -2.7715420753     -0.5621938276
C     -1.9054910446     -2.0728386037     -1.6035190285
C     -3.176600315     -1.5336687442     -1.3239709801
C     -3.4804151432     -0.2260773795     -1.7814206114
C     0.7090978927     -2.0387125522     1.5111946641
C     -0.6516705291     -2.098365293     1.7338238017
C     0.2481569497     -2.640740074     -0.8241554022
C     1.2055547694     -2.5412551352     0.2224471828
C     -4.1777013267     0.4850697151     -0.6856926365
C     -3.6342733219     1.7912410208     -0.5953299241
C     -2.4299951962     0.6367730503     -2.2425539862
C     -2.5959940575     1.9169340097     -1.630624744
C     -0.9067885868     -1.2832359615     -2.2953954993
C     -1.0802574198     0.1219409249     -2.4724985921
C     1.4457183441     0.407249986     -2.2747749626
C     0.0862832106     0.9719740201     -2.2168587271
C     -0.1334930912     2.1412717432     -1.3908363475
C     -1.4673689238     2.5450590288     -1.0613190471
C     2.530297234     1.1952163629     -1.802112164
C     0.4114412566     -1.7858495173     -1.9481501507
C     2.7522013114     -1.5389598061     -1.4566983993
C     1.6005866311     -1.0357057111     -2.140327702
C     3.4561268812     -1.6743399708     0.7521953566
C     2.5072756014     -2.2099093456     -0.1845530075
C     4.556878971     0.3026143744     0.705009514
C     4.475550481     -0.9858222942     0.0859607677
C     3.941258306     -0.7530327457     -1.2909969338
C     3.8167024916     0.6300940542     -1.4701984097


