52

 C     -3.6735403457     1.5442934663     0.1295061449
C     -3.1461232413     1.3648865939     1.4390868568
C     -1.7383426624     2.8339204478     0.2715640669
C     -2.7142185528     2.3388486293     -0.6359462142
C     -0.4539293176     3.0178861421     -0.2084101483
C     -0.9194455858     0.2718164058     2.7418119476
C     -0.7995887206     1.617542005     2.2332395059
C     -1.9410524102     2.1364730282     1.5595584218
C     -0.0901693912     2.5451173442     -1.5198526883
C     -0.9525508872     1.642176721     -2.207506873
C     -2.3214632169     1.6057747073     -1.7767207668
C     -3.0743183816     0.3246313021     -1.7113882611
C     -2.4575750311     -0.8492223338     -2.1138848342
C     1.3579312938     2.3944336577     -1.5247130502
C     1.9390051326     1.3662527626     -2.2635236434
C     1.0765225169     0.2837739994     -2.7408836407
C     -0.3347399301     0.400334152     -2.7359869267
C     -1.0729121436     -0.8222767269     -2.6219721502
C     3.1584463116     0.7757017765     -1.7825478376
C     3.0161217759     2.0455557156     0.2979091826
C     1.8676712479     2.6981400217     -0.1909438617
C     3.7210544857     1.1175990537     -0.5709202413
C     2.918790386     1.420070701     1.5760648751
C     0.7029603657     2.8481624701     0.6548055843
C     0.5513995674     2.100933683     1.8613182125
C     1.702893634     1.3365519324     2.2746730613
C     -2.6094085913     -2.0344514053     -1.3125777767
C     -0.4297526334     -2.0371244272     -2.2078172701
C     -1.3617325993     -2.70336058     -1.3448584242
C     -3.0103384367     -1.9086591339     0.0722761642
C     -3.6406750024     -0.739447852     0.4960960731
C     -3.879888295     0.3086671467     -0.4936847389
C     -1.9546719627     -2.5364501154     0.8863346347
C     -3.1349875973     -0.0553810949     1.6970644466
C     -2.0406285508     -0.577024476     2.3844182484
C     -1.5010656461     -1.8895708741     2.0325204665
C     1.742431224     -0.9785601589     -2.4175137844
C     0.97176436     -2.0848568673     -1.9266541054
C     0.3954060728     -3.0792349466     0.2809333659
C     -0.9596988529     -3.1031709029     -0.0239615849
C     1.4064858757     -2.7069078033     -0.7074369264
C     3.4288437894     -1.2566560893     -0.6167605766
C     2.9981945583     -0.6898997972     -1.8463870609
C     2.5594950572     -2.1998107971     0.0012124387
C     3.9505545496     -0.15052363     0.1744100183
C     2.1880686831     -2.0416007468     1.4029038953
C     2.5556610101     -0.8665906906     2.0815135278
C     3.4713992081     0.0497022674     1.4497056719
C     0.8432002406     -2.5593030637     1.5646259347
C     -0.0860177047     -1.8943478474     2.3592909981
C     0.2483101179     -0.5651763128     2.8687890121
C     1.5262242264     -0.0596174591     2.7112306304


