52

 C     0.9903914279     2.8391101146     1.3513260035
C     1.8808387922     1.8328553678     1.909953414
C     1.1692472244     3.2653937534     0.0111635065
C     2.9393661242     1.3082566335     1.1355835995
C     3.133640174     -0.1214373168     1.0561153735
C     1.0748820925     0.9273621891     2.7130990305
C     1.3353472782     -0.4475128847     2.7073301072
C     2.376295263     -0.9879381551     1.8511528518
C     -1.268279962     3.1367778344     -0.3326461748
C     -1.4800024015     2.8092904038     1.0856803756
C     0.0267193013     3.2073612322     -0.8626007282
C     -0.3525635183     2.5784459007     1.8662658249
C     -0.2961362577     1.399656387     2.7196202213
C     -2.6378067041     1.9119811974     1.1650472507
C     -2.5490059599     0.7329029955     1.9329749202
C     -1.3559775004     0.4873406483     2.7305669557
C     -2.2302078562     2.4512867791     -1.0825757665
C     -3.1848740824     1.8115228614     -0.1587872845
C     -3.5131263836     0.5872234737     -0.7003620578
C     0.3865066266     2.3944168342     -2.0446724381
C     1.7637215755     2.1775944797     -1.9759328461
C     -1.8788726772     1.5412397457     -2.1481896309
C     -0.5033455434     1.356132742     -2.5095171279
C     -0.8946881346     -1.1404676751     -2.4987501845
C     0.0207873617     -0.0016607035     -2.7034700663
C     1.4671772715     -0.2290462689     -2.5134897792
C     2.3233707355     0.867587128     -2.1530114315
C     -0.3725748701     -2.4246471024     -2.153034366
C     -2.7207504827     0.4142975206     -1.9563878152
C     -2.2432899062     -0.8828137378     -2.02986639
C     2.2876541826     2.7682076429     -0.7427427342
C     3.1429222835     1.8270777054     -0.1997660249
C     3.3271915578     0.7145028065     -1.1305569994
C     2.8082043979     -1.6279637991     -0.8922760516
C     3.3671216544     -0.4689653427     -0.371851997
C     1.0283861414     -2.6205916356     -2.0009931234
C     1.9118551093     -1.5238024137     -2.0505527422
C     -2.7984864792     -1.6068052955     -0.8505503533
C     -2.1071039157     -2.6714682757     -0.3298645768
C     -1.0125529669     -3.1930822507     -1.0927959846
C     -2.0746120535     -1.5792707538     1.8833544032
C     -2.9757112056     -0.5488067654     1.3829582914
C     -3.4088964439     -0.6153921522     0.0405673708
C     -1.7163128094     -2.6732865644     1.0901894101
C     0.6206061802     -2.5457355671     1.9022431617
C     0.2411196248     -1.3983642287     2.7125057729
C     -1.0807819682     -0.9403191676     2.7271601035
C     -0.3635283041     -3.2075488766     1.1343676843
C     1.2507965741     -3.3402729964     -0.7556217238
C     2.2236292218     -2.6274338801     -0.0104987901
C     1.930212738     -2.270843692     1.3374183573
C     -0.0084825273     -3.6523268752     -0.1952588015


