52

 C     3.5434309205     1.626933585     -1.2222992652
C     1.4755607573     2.6872058525     -0.7759576307
C     2.8159358365     2.5133229907     -0.3007112153
C     0.3689220995     2.6816151694     0.1166964983
C     -0.9500663326     2.5350438655     -0.4888554674
C     -3.374445951     2.0168652915     -0.0285651551
C     -2.0643491411     2.4787184647     0.4054325482
C     -2.3080801604     1.2257196402     -2.0924158453
C     -1.0610965195     1.8497539815     -1.7679591329
C     -3.4564051251     1.3572104499     -1.2467663186
C     4.0654933844     0.4749642898     -0.478491135
C     3.7827127451     0.7107761682     0.858988603
C     2.9947443983     1.9858812768     0.9741668891
C     0.5839732154     2.2149651131     1.4902745154
C     1.8959583931     1.7497126172     1.8351769136
C     3.1500107967     -1.8005717838     -0.2365168506
C     2.9341852625     -1.5653938906     1.2029276102
C     3.5505165863     -0.7421644332     -1.0812894499
C     3.1415689864     -0.2676337859     1.6933165594
C     2.0481628431     0.409845643     2.3931250956
C     1.7263693322     -2.2990902959     1.5982774254
C     0.7524438761     -1.6953932851     2.4049770083
C     0.9204489096     -0.3000374828     2.7932495668
C     -0.3602867472     0.3385043268     2.8254559461
C     -1.8438421058     1.9375206099     1.7207705256
C     -0.5439500953     1.6167669531     2.1805220896
C     2.0821294125     -2.6285912104     -0.6671512954
C     1.2563389722     -3.0384682421     0.477955852
C     2.6257910545     -0.3218948685     -2.1287173755
C     2.627106619     1.1449863682     -2.131308464
C     -0.1152075909     -2.7074614277     -1.3234619361
C     1.2192323312     -2.2679533481     -1.7177807436
C     1.4102735788     -0.9925723603     -2.3732257686
C     -1.2135023379     -2.1084283143     -1.8484528669
C     -1.0358410481     -0.868029692     -2.6344200149
C     0.1934421464     -0.1977849586     -2.6600968051
C     -0.6563937488     -1.886544206     2.1444716638
C     -1.1320726469     -2.5312617004     0.9587783356
C     -0.0967090118     -3.0631351566     0.1059003906
C     0.1571068021     1.2526501277     -2.3209181844
C     1.3601658322     1.8600020732     -1.9747949501
C     -2.2423243218     -0.1465335881     -2.4822027977
C     -3.1858563793     -0.9213641796     -1.6943761234
C     -1.3459837171     -0.6994340553     2.6148172868
C     -2.611133324     -0.3955753626     2.1523844815
C     -3.2247327779     -1.1374504931     1.0809527855
C     -2.4052173286     -2.0772334951     0.3496030518
C     -2.4587552317     -1.9909957386     -1.0910329175
C     -2.9525292964     1.0219486355     1.9609352563
C     -3.9514455968     1.1580739762     1.0088695815
C     -3.9961260832     -0.0289197608     -0.9811658595
C     -4.0956624731     -0.1690703537     0.4009170891


