52

 C     -2.4024790403     -2.4524033201     -0.3902000616
C     -3.537258085     -1.6734755407     -0.736385337
C     -1.3194992     -2.4248822603     -1.2448020983
C     -0.0238339124     -2.7768127927     -0.7433629977
C     1.5766232002     -2.4958870795     1.0306528852
C     0.229460434     -2.6551777411     0.6430383385
C     -1.1435545317     -1.3375108798     -2.1814611175
C     -2.076508794     -0.2679276048     -2.179851237
C     -3.3819381573     -0.5364704001     -1.5739587454
C     -4.1337935389     0.5446063403     -0.8801618549
C     -3.4461984103     1.7120093396     -0.6769084885
C     0.2968201096     -1.163329421     -2.3386215666
C     0.9298986075     0.103017002     -2.3976478527
C     0.004928473     1.2390098368     -2.2085507018
C     -1.4607469199     1.0659585163     -2.0971016132
C     -2.1827013128     2.0023289334     -1.279317205
C     1.9403178221     2.4551991656     -1.2655118699
C     0.5788801554     2.3993259894     -1.5930417326
C     2.2924452429     -2.1874870109     -1.3000734994
C     0.9710995142     -2.2554815319     -1.6652190997
C     3.0863760723     -1.0113492702     -1.5983383472
C     2.3924853571     0.1810250388     -2.0521514493
C     2.8945191708     1.4355074679     -1.5352747505
C     3.7587558775     -1.9351986338     0.4688934323
C     2.6431848517     -2.6380604693     0.0457251921
C     -0.1272290275     2.9626379131     -0.4439360215
C     -1.4407162297     2.7358457467     -0.2797888698
C     -4.5801837476     0.0672216618     0.4435753069
C     -1.9483662154     2.3332623575     1.0306569053
C     -3.2687460292     1.9073503706     0.8225724708
C     -3.811831347     0.811690746     1.4652560224
C     -4.168895243     -1.2372625002     0.5185559082
C     -3.1588044553     -1.4000974468     1.5584923568
C     -0.790790683     -2.0076581116     1.4593744983
C     -2.128685114     -2.2145003934     1.0550875501
C     0.7587224774     2.8688696917     0.6988006489
C     0.3939635242     1.9188111448     1.7185355405
C     -1.0239113004     1.6033259251     1.857806179
C     -1.4624670012     0.263896155     2.2565763201
C     -2.8447134418     -0.0998703703     2.0997173267
C     1.418562405     0.9555727487     2.1365080007
C     0.986692401     -0.4378149551     2.2618817347
C     -0.429969088     -0.7817709971     2.149160887
C     1.9500822216     -1.4816951612     1.961651479
C     2.0566455906     2.8795729109     0.1450269738
C     3.0674177032     2.1384774402     0.7022539881
C     2.8010565445     1.2070630642     1.7537494317
C     4.0952458318     -0.953935857     -0.5471347535
C     4.3043958592     0.2705979949     0.122531418
C     3.7934048518     1.4317351572     -0.3926535422
C     3.7196720235     0.1222390365     1.5200984151
C     3.3521945038     -1.1900679462     1.6752756028


