52

 C     2.3670293096     2.6313280749     0.0692804637
C     3.2836006585     1.6773313083     0.7134302766
C     2.7671921874     1.3561321441     1.9795912466
C     1.2464284306     2.8362115444     0.9197750671
C     -0.0808160818     2.8533043927     0.4053044375
C     -0.1933290105     2.751085328     -1.0230468337
C     -1.4026587516     2.2024831244     -1.6018415539
C     -2.5464371894     2.1335116567     -0.8428561391
C     1.5121772709     2.0575944427     2.1155875001
C     -1.1860950465     2.2943622823     1.2203640554
C     -2.4479590274     2.1849608734     0.5959605664
C     -3.5007290716     1.0667490884     -1.1478315771
C     -4.2914051414     0.722345587     -0.0366869997
C     0.5228888181     1.2055873066     2.6494567516
C     -0.849464015     1.3256744934     2.2778094904
C     -3.4405236299     1.2094819291     1.04715871
C     -2.9917667724     -0.1220205699     -1.8323822135
C     -1.6832170089     -0.1321092924     -2.413516285
C     -1.0191039526     1.1352053097     -2.5163089629
C     0.4019237649     1.2393875614     -2.6756038838
C     1.1658703674     0.0977313886     -2.8457985484
C     -3.4403348362     -1.2098265106     -1.047150549
C     -0.8493278289     -1.3257478544     -2.2777768068
C     0.523022227     -1.2055095129     -2.6494517739
C     -4.2914634817     -0.722847706     0.0367468223
C     2.201275329     2.2250960776     -1.2740144423
C     3.0304662746     1.0266289947     -1.5060745556
C     0.9163018682     2.3154758385     -1.8221966379
C     2.5460713819     0.0170843185     -2.340129052
C     2.7673182379     -1.3558418008     -1.9795841808
C     3.670320259     0.6795466154     -0.2188923221
C     3.6703883863     -0.6791727766     0.2188861704
C     3.2837806277     -1.6770041451     -0.713417439
C     -2.4477522893     -2.1851774119     -0.5960119956
C     -1.1858676995     -2.2944905309     -1.2203609769
C     1.5123967824     -2.0574278809     -2.1156046321
C     2.3673096646     -2.6310860146     -0.0692854715
C     -2.5462312213     -2.1337875378     0.8428711306
C     -1.4024604176     -2.2026515733     1.6018396665
C     -0.1930531163     -2.7511177364     1.0230407764
C     -0.0804989487     -2.8533276078     -0.4052846601
C     1.2467234904     -2.8360746706     -0.9197683134
C     -3.5005767734     -1.0670966807     1.1478337597
C     1.1658790972     -0.0975973757     2.8457872618
C     0.4020598312     -1.2393446222     2.6755756074
C     -1.0189733084     -1.1352729051     2.5162663238
C     -1.6832432546     0.1319209063     2.4135198039
C     -2.9917752314     0.1217062768     1.8323564732
C     2.2015065431     -2.2248621955     1.2740202471
C     3.0305532641     -1.0263301241     1.5060889219
C     2.5460561385     -0.0168212784     2.3401363302
C     0.9165328961     -2.3153805489     1.8221889453


