52

 C     3.6426963313     0.7710092599     -1.2622550323
C     3.0264910621     1.9521067908     -0.9172370884
C     1.8552867426     2.1462162253     -1.7894991517
C     -2.0269071494     0.6537747476     -2.3654601482
C     -0.7481812651     1.247872959     -2.309942891
C     3.5793558699     0.0365179636     1.0977305864
C     2.9213904899     1.3132432507     1.450341093
C     3.8925915224     -0.2530352668     -0.2646807454
C     2.6139427414     2.2349671521     0.441290668
C     1.2665528147     2.789999859     0.3545564868
C     1.9113242975     1.0316357361     2.4783998749
C     0.6593984328     1.652549914     2.4492304857
C     0.3400898882     2.5910822936     1.3693025532
C     -1.0549400958     2.5217294747     1.0717349984
C     -2.8597212134     1.9871270632     -0.4816823878
C     -1.5390211401     2.4923622287     -0.2747483552
C     -0.5459426529     2.325617574     -1.3344762046
C     0.7978742743     2.6730213765     -1.030701666
C     -3.1642586399     1.2265471785     -1.6269295156
C     2.9274479315     -0.9730623814     1.8606159588
C     1.9315672181     -0.3650215069     2.7426199535
C     2.3561179834     -2.1372500982     1.2847010715
C     2.5570859276     -2.350738054     -0.1115017737
C     3.3900438206     -1.4696439825     -0.821769036
C     1.0193949731     -2.2819996851     1.8536056287
C     1.3830944853     -2.6288962789     -0.9566876829
C     0.1592040712     -2.9038734981     -0.3683257862
C     -0.026777155     -2.7448966422     1.0861252065
C     -0.5417008491     0.9145455575     2.7209353665
C     -0.5402540477     -0.5181593093     2.7765064281
C     0.7549119132     -1.1368129479     2.7512257588
C     2.7097074006     -1.1501488354     -2.112054433
C     2.8613591039     0.1844213705     -2.3892159861
C     1.4305730488     -1.7785358207     -2.1334890378
C     0.3916660582     0.4101887978     -2.7017130731
C     1.6919202058     0.9965051632     -2.6213687925
C     -3.3877506086     -0.9721111563     -1.4588607414
C     -2.1720735992     -0.7587608675     -2.2665881272
C     0.2621640302     -1.04523772     -2.5165769276
C     -1.0540662343     -2.5264091999     -1.0050215255
C     -1.0307422601     -1.5783807736     -2.0931944664
C     -2.0663836513     -2.4013689137     0.0361383543
C     -3.7615500808     -0.8537490467     0.809096289
C     -3.2548366543     -1.7131669698     -0.2007898848
C     -1.6388534077     1.5992115354     2.0545098161
C     -2.8230810286     0.9533137894     1.8140834176
C     -2.8897729657     -0.4873171869     1.9107207687
C     -1.6938767678     -1.2257876119     2.1839934353
C     -1.3899293482     -2.3230044955     1.3076881242
C     -3.6049754887     1.3588785723     0.6270450385
C     -4.1305659789     0.2020668824     -1.2770292474
C     -4.3870403562     0.3108655335     0.1596123454


