52

 C     1.9708022506     2.4670001077     -0.7358816556
C     3.0413720923     1.7104141007     -1.0676472929
C     4.6782693087     0.2005743526     -0.4075167635
C     3.9493522428     1.3000790972     -0.002285977
C     0.2652113737     2.9806085419     0.6949099015
C     1.5819534998     2.6119317427     0.697245986
C     4.6049042241     -0.7659918262     0.6769908741
C     2.0219029819     1.5764544012     1.6093961215
C     3.3265224603     1.0595315225     1.3498353112
C     3.6939229249     -0.2414046658     1.7269302715
C     4.0160050487     -1.9085899348     0.1924825116
C     2.8647373822     -2.2623837376     0.989838891
C     0.4877427004     -2.3370910893     0.5221622332
C     1.8167114437     -2.4877910831     0.0953179049
C     -0.7334825086     2.3543029174     1.4905869331
C     -0.4259426914     1.1273067668     2.1415277354
C     0.9828312745     0.7083766864     2.1662820656
C     1.2845471218     -0.7271972354     2.1707614584
C     2.617986418     -1.1850712357     1.9575859609
C     -1.5330517059     0.14122872     2.2480380547
C     -1.1942909206     -1.2333488465     1.9314769468
C     0.1867744454     -1.5735781873     1.6962999038
C     -2.1796941004     -2.039372592     1.2653379195
C     3.5449401713     -1.6731285731     -1.2165979564
C     3.9140989332     -0.3630285307     -1.5686666022
C     2.8778312069     0.561365399     -1.9637944924
C     2.1807372425     -2.0367371604     -1.2677271143
C     -0.1859399542     -1.5716379174     -1.6981553166
C     1.1949376189     -1.2304525132     -1.9329462401
C     1.5329946089     0.1447046075     -2.247903754
C     -2.6173524519     -1.1840849031     -1.9590883831
C     -1.2842116508     -0.7252540766     -2.1716692861
C     -0.9832165174     0.7104643937     -2.165480743
C     0.4253487363     1.1300722811     -2.1401952255
C     0.73222369     2.3564348195     -1.4877633543
C     -1.8154531952     -2.4885639991     -0.0982843172
C     -0.4865293354     -2.3365895051     -0.5249319745
C     -2.8635854104     -2.2626968323     -0.9924764255
C     -1.5833355943     2.6119545556     -0.6941256386
C     -0.2667792815     2.9812740711     -0.6913378359
C     -3.949978762     1.2979541218     0.0038172741
C     -3.6937390141     -0.2412422101     -1.7271954107
C     -3.3270680841     1.0594616261     -1.348590611
C     -2.022723449     1.5773610876     -1.6075400578
C     -3.0422717765     1.7075558626     1.0696618031
C     -1.9721012333     2.4651093808     0.738812118
C     -4.6785463559     0.1977049972     0.4077640935
C     -4.6042237218     -0.7675553046     -0.6778451141
C     -4.015077725     -1.9105961533     -0.1947262495
C     -2.8781294699     0.5575286364     1.9644399597
C     -3.9138578776     -0.3669234216     1.5681929079
C     -3.5440886148     -1.6764532626     1.214688651


