52

 C     -3.5553691769     -0.9913416144     -0.5543807699
C     -2.6584479502     -1.9377521685     -1.0961060073
C     -0.1001945001     -3.1836813882     -1.1132158031
C     -3.4427269853     0.42773775     -0.8321592742
C     -2.5573763187     0.8496983457     -1.8163366802
C     -1.6445552895     -0.1099948601     -2.4311946951
C     -1.6679186907     -1.4948236408     -2.0547152158
C     -0.4105751491     -2.1729811077     -2.1080278524
C     1.2726975354     -3.2281087534     -0.8209982375
C     1.3600445978     -3.0705916542     0.6230049945
C     2.3563423702     -2.3111232189     1.1757396173
C     1.8947949964     -2.204277169     -1.6303973031
C     2.9750457328     -1.5101156084     -1.1388675069
C     3.3678829591     -1.7629230222     0.2575578952
C     -0.4027787409     0.5690713661     -2.6648670731
C     0.8725941451     -0.0883935641     -2.5636528001
C     0.8225539658     -1.4984392605     -2.3734243209
C     -1.7280711643     -1.5563230911     2.1197190195
C     -0.347937635     -1.9107354091     2.0757460065
C     -0.004382897     -2.9568814649     1.1583822935
C     2.0242299767     -1.2273680762     2.1222366739
C     0.6699435483     -0.8889361082     2.4060839178
C     1.2644729794     1.5499467931     2.1028763619
C     0.2783558399     0.5321304421     2.4672362416
C     -1.1505883377     0.8677880081     2.3467253533
C     -2.1218716382     -0.1496002008     2.280699972
C     0.8252331167     2.8008459381     1.5126142201
C     2.9885983816     -0.2019572588     1.888374286
C     2.5795444782     1.1413034934     1.7207175989
C     3.8527265443     -0.5841052297     0.7840954511
C     -0.9048836578     -3.2720968114     0.0787261835
C     -2.6848933897     -2.1772183299     1.2561104463
C     -2.1938136371     -2.7607678239     0.0560143506
C     -3.3242767532     0.036661831     1.4832886751
C     -3.6461333476     -1.1764471551     0.8774137731
C     -0.5758117708     3.069420388     1.3859435387
C     -1.5377257584     2.1522369398     1.7373403452
C     -2.5839557745     2.1789828198     0.6627538885
C     -3.3904759214     1.0968886364     0.4873458708
C     3.1360304749     1.5891645355     0.4233063429
C     2.3824307681     2.4637694208     -0.3668848568
C     1.4100075027     3.2389637232     0.2913761152
C     3.7297754694     0.4754592711     -0.2068912108
C     -0.5614055493     1.9800211635     -2.2938410144
C     0.5450214099     2.6879292922     -1.8092287979
C     1.8320419371     2.0156147726     -1.6399602939
C     2.0418929192     0.6646586382     -2.0488217553
C     3.0931258997     -0.0602816961     -1.3704059223
C     -0.8611301923     3.5589033147     -0.0006130219
C     -1.9952337231     2.8620146453     -0.4858818098
C     -1.8641291102     2.1277792977     -1.688283686
C     0.3412555103     3.5502748593     -0.6723035241


