52

 C     3.0886925522     1.0455600696     -1.3322864837
C     1.7191292242     2.9795141056     -0.8202707818
C     2.8655883326     2.2018801524     -0.5325292819
C     -0.3243616175     3.2802590142     0.3232318762
C     1.0608327817     3.3775887847     0.4543986631
C     -2.78587529     2.2291246052     -0.5494728481
C     2.9289714501     2.0592690549     0.9013248895
C     1.7248540898     2.6866611758     1.4659871045
C     -2.4350130852     2.2560774343     0.8831931828
C     -1.0920807229     2.5584950486     1.2934865474
C     3.099271567     0.7974762859     1.4822976181
C     3.6842709281     -0.2386372634     0.6965424016
C     3.7229378929     -0.0597182884     -0.7341511872
C     1.4622083561     -2.9736541881     1.0791716693
C     3.3058815811     -1.5774964265     0.9621465422
C     2.1353657722     -1.864797258     1.7216794741
C     1.8758394677     0.5122310746     2.2609630362
C     -2.3952889519     0.1608161844     2.1706602699
C     -0.989393684     0.2895492316     2.4214125181
C     -0.1552295764     -0.9186165705     2.3377470002
C     1.3170714782     -0.7865822533     2.2909089099
C     -0.7486389459     -2.1278612201     1.782201388
C     0.0886558296     -3.00663417     1.0040662337
C     -0.3878823578     1.6051217299     2.1700070306
C     1.0329492532     1.7034464707     2.2297400851
C     -3.1031912867     1.1830221084     1.4429263384
C     3.1341964196     -2.2642750234     -0.3432362836
C     3.2246583566     -1.2858688944     -1.3534363092
C     2.0216525878     0.5197342528     -2.1923193208
C     2.010370305     -3.0632733644     -0.2864545645
C     0.9282205698     -2.8764750988     -1.1984688263
C     0.8975529045     -1.7328555387     -2.0944844618
C     2.1013036874     -0.9519921049     -2.1621200733
C     -1.5910793587     -1.7328445032     -1.9400433848
C     -0.4007385826     -1.0705926229     -2.355161185
C     -0.4575839617     0.3930968297     -2.488070983
C     0.7854100414     1.1837099928     -2.3045014561
C     0.7070509796     2.5006460289     -1.6655935941
C     -0.5624051575     2.911790317     -1.0920611021
C     -1.7158501185     2.2996695062     -1.4932162524
C     -1.7009173254     1.0347491556     -2.2379443344
C     -3.4654975517     -1.6619796588     -0.5054547299
C     -2.8565071807     -1.060806753     -1.7010727253
C     -2.9156951828     0.3310390891     -1.8592610813
C     -0.2582080549     -3.1533533197     -0.4429427317
C     -2.5263546093     -2.570327228     0.0277521173
C     -1.4839292211     -2.7742125513     -0.9138440384
C     -2.9496689439     -1.0731193017     1.7120886188
C     -2.1301799816     -2.142641147     1.3945565845
C     -3.9697661872     0.5392482655     0.3883581572
C     -3.8875302482     -0.8152421365     0.560822548
C     -3.6341192242     1.1440909167     -0.8593027842


