52

 C     -2.807867188     -2.2805702402     0.3689602203
C     -1.8256919677     -0.5733403891     2.3431170613
C     -1.0227734961     -1.6651052527     1.9812102036
C     -1.5744980901     -2.5483152262     0.9621979056
C     0.6621005816     -2.9718421674     0.102567895
C     -0.6615752811     -2.9719629388     -0.1030705002
C     2.513373726     -0.1321049445     2.2658558493
C     1.0971086513     -0.2888091008     2.4749582508
C     0.4502952016     -1.5748367097     2.1296975536
C     1.2322306139     -2.4873779893     1.379890246
C     -2.5999864011     -2.2503157982     -1.1050528243
C     -3.2859220044     -1.1726373324     -1.6198105447
C     -1.2317931989     -2.4873855358     -1.3802994148
C     -2.5133353234     -0.1321967101     -2.2658642359
C     -1.0970632468     -0.2886334413     -2.4750273336
C     -0.4500228847     -1.5745806925     -2.1299709331
C     1.8257890758     -0.5726254496     -2.3432099611
C     1.0230725729     -1.664598539     -1.9815074374
C     1.5749608192     -2.547871461     -0.9626221729
C     -4.0691334596     -0.5559887214     -0.5244181645
C     -3.9969915552     0.8235583992     -0.692025108
C     -3.0207175896     1.1061832445     -1.7659102756
C     1.1630472984     0.7343256045     -2.5127786571
C     -0.2594686595     0.894304104     -2.3831852667
C     -3.6536255913     1.6581381903     0.4094190628
C     -2.5484589302     2.5493335421     -0.0125260818
C     1.5813982352     2.5962915025     -1.0125709423
C     0.1942284718     2.6604414417     -0.7017799907
C     -0.7392232037     2.0431852396     -1.6298862561
C     -2.1352770096     2.1186579473     -1.3136160913
C     2.0345829341     1.7221431522     -2.0663985944
C     -3.2929199944     1.0947761531     1.634987139
C     -3.1551365822     -0.3327200533     1.7711530261
C     -3.6398418574     -1.170472743     0.7258594975
C     -2.0348986246     1.7214250842     2.06668707
C     2.1349092458     2.1188362705     1.3139497021
C     0.738863593     2.043090997     1.6302392928
C     -0.1947058936     2.660285243     0.702209876
C     -1.5818635094     2.5958300341     1.0130008254
C     2.5480082338     2.549794847     0.0129566666
C     0.2593136252     0.8939693908     2.3833031088
C     -1.1631911975     0.7337049353     2.5129008974
C     3.0205173669     1.1064459496     1.7660979896
C     3.9968396988     0.8241760126     0.6921701979
C     4.0692589097     -0.5553267049     0.5243166698
C     3.6533484823     1.6588945725     -0.4091456881
C     3.6400424149     -1.1696748633     -0.7260416697
C     3.1552031556     -0.3318550254     -1.7712111543
C     3.2927003028     1.0956381507     -1.6347754067
C     2.8082608261     -2.2799890558     -0.3693116816
C     3.2861604314     -1.1723095283     1.6196273707
C     2.6003782722     -2.2499933944     1.1046728089


