52

 C     -0.0022432765     -2.5859559118     -1.8055258176
C     1.343884045     -2.1854164094     -1.5964138442
C     1.7418722652     -1.0523016343     -2.3757656936
C     -0.9807180354     -1.6728430756     -2.419610233
C     -0.6389603548     -0.3225159756     -2.7228354925
C     0.7523336904     -0.0862213451     -2.8567757629
C     1.9712884885     -2.4157689149     -0.2782475994
C     3.1429828184     -1.6441655017     0.039519305
C     3.2758437484     -1.0554512053     1.3562833607
C     1.0320361356     -2.738663587     0.8174766384
C     1.1620415648     -2.022789066     2.0615259167
C     2.3103099862     -1.2195763901     2.3078977729
C     -0.7025970671     -3.4006529337     -0.8551503661
C     -0.2903162172     -3.1672609642     0.4986404198
C     -2.0931952722     -3.0991892648     -0.9538062398
C     -0.9448221586     2.0652058003     -2.1362138547
C     -1.5496979343     0.7793107157     -2.3268648695
C     -2.2266241358     -1.9742674504     -1.8254577241
C     1.8481588253     0.1173105325     2.7527438063
C     0.2642434277     2.2835433298     1.8295430524
C     -0.6342029103     3.1089417407     1.0623978513
C     -1.4595296232     -2.6520030014     1.2430405242
C     -1.2892817935     -1.5844783481     2.1894470084
C     0.0298509569     -1.31140579     2.6176847641
C     0.4650185356     0.0500293189     2.9222443819
C     -1.7395199441     0.8777574639     2.4575437146
C     -0.3477163721     1.1818824032     2.6004735244
C     3.5067767032     0.4163694466     1.2165945931
C     3.7224868712     0.6656008966     -0.1049344769
C     2.4674520295     1.1106377759     1.9604342345
C     2.9497873384     1.6715358924     -0.7924006045
C     1.9557066866     2.4469181287     -0.0719398857
C     1.6459312169     2.1226331519     1.327493747
C     3.6033151065     -0.6294884577     -0.8547013359
C     2.9187887503     -0.3320998456     -2.018274351
C     2.6042785072     1.0973611984     -2.0436957172
C     -0.2963472266     3.3884356326     -0.2898063457
C     0.8748062028     2.9321312239     -0.8840658149
C     0.482037539     2.2286668365     -2.1253151042
C     1.308922425     1.2243911287     -2.6039089655
C     -2.5122383475     2.6950326705     -0.3469174544
C     -1.4435765463     2.9797517645     -1.1380709119
C     -2.5789282515     1.7682379924     1.7243614737
C     -2.0605206969     2.8530805693     1.0582798795
C     -2.1998419887     -0.4818081922     2.1956966459
C     -3.2686903125     -1.352462031     0.1386776039
C     -2.5215270059     -2.5908455362     0.3071171848
C     -3.2350968879     -0.4072431059     1.1664406199
C     -3.1881095468     1.4146947042     -0.4982870771
C     -2.7488797188     0.4606483065     -1.5197739174
C     -3.0192628723     -0.9085660319     -1.2212778825
C     -3.4077293681     0.9533213453     0.8144893188


