52

 C     -2.8325509211     -1.1515696379     1.7886667237
C     -1.594651742     -1.0623510915     2.5671375441
C     2.4832159469     -0.0263888567     2.0799141068
C     1.1540309403     -0.3987902719     2.4600039763
C     -2.6483717688     -2.1531083984     0.8044475059
C     -3.0106971596     -1.8367358744     -0.5378937735
C     -3.6752891632     -0.6277271071     -0.7927786025
C     -1.3606869738     -2.7878878726     1.0730232046
C     -1.9818050669     -2.0155988475     -1.5915626336
C     -0.8486839673     -2.738379593     -1.3376530222
C     -0.5756073109     -3.2418567834     0.0297550655
C     0.8333816877     -3.2406093633     0.183564712
C     0.7181245388     -1.7655275577     2.1408232078
C     -0.6903664389     -2.0518836964     2.1664284234
C     1.5058155808     -2.535299988     1.2187541552
C     -3.0254986507     0.0045882367     -1.9704306067
C     -2.9539183114     1.3677999016     -1.8071107761
C     -1.8906721642     -0.7705559637     -2.3559289532
C     -3.5026731257     1.6513455489     -0.4521099553
C     -2.6571854882     2.5523524086     0.1489922305
C     -1.5854334556     2.8877070362     -0.7970782546
C     -0.3850991939     3.0336690689     -0.112900995
C     0.4216464089     -2.3226215491     -1.9050002048
C     0.5658299038     -0.9995658647     -2.4740807555
C     -0.6254639714     -0.1529537681     -2.5963375899
C     -0.5053675311     1.3034998852     -2.3463574679
C     -1.6815590471     2.0239752902     -1.943513932
C     1.9673328179     1.0473694406     -2.1614179002
C     0.7886318411     1.8340378535     -1.9243059481
C     0.8435773363     2.7315879734     -0.7718221657
C     1.9625168699     2.6909141742     0.1005828561
C     -3.2988998018     0.1521733545     1.4933976791
C     -2.3137610605     1.0912774468     2.0861110114
C     -3.8403626191     0.3970714184     0.1970739947
C     -2.0072797421     2.2666575571     1.4148122741
C     -0.6094454695     2.6327473688     1.2786606544
C     0.4330300094     1.964290525     1.9528228497
C     1.7385486536     2.2340382634     1.4581545149
C     0.1436974664     0.6637561957     2.5829744222
C     -1.2253537769     0.3028252449     2.6868718764
C     3.8364280381     1.4199737113     0.7666450558
C     2.8211292444     1.3420694561     1.759881782
C     3.1846478323     1.304768437     -1.4644947585
C     3.2174711126     2.1366237508     -0.3268360695
C     1.839202902     -0.3886809834     -2.3480532874
C     2.6553151119     -2.1488148961     -0.8102886592
C     1.4465263396     -2.8299446013     -1.0613523707
C     2.9403284215     -1.0174676154     -1.6063632852
C     4.0221979607     0.0696088833     0.3045449382
C     3.2950078635     -0.8502131794     1.1866319654
C     2.7383094452     -1.9983667223     0.6473933715
C     3.7707696481     0.0061816519     -1.0823881346


