52

 C     1.6467517904     0.7528828564     2.5771500993
C     2.7632750714     1.0575594083     1.8027978794
C     3.5168153342     -0.0269280619     1.2105641549
C     0.4893907671     1.6322416611     2.5583281924
C     2.6631921994     2.0997330597     0.7793664227
C     1.4634478959     2.7811393669     0.6073358664
C     0.4011248747     2.6307612757     1.5775092965
C     4.0492836197     0.3717223249     -0.0708302007
C     3.3334611792     1.5619249712     -0.3883799256
C     3.5850413912     -0.6152883827     -0.9873649463
C     3.0512717481     -1.728040726     -0.2474877169
C     2.0367999162     -2.5062582076     -0.8135448196
C     2.7091419757     -0.0133092439     -1.9616626064
C     0.4638325242     0.0258956975     -2.9162161503
C     1.5688545814     -0.7441257292     -2.4785878321
C     1.306649788     -2.0641514208     -1.9685531863
C     0.8449520079     2.898358318     -0.7178470084
C     1.3642515129     2.0955959632     -1.8020582088
C     2.5864982074     1.3949672074     -1.6042307388
C     0.4019861424     1.4731148543     -2.6710505327
C     1.1149488727     -3.1671605986     0.0716687376
C     -0.1349071804     -3.298878436     -0.5916316217
C     -2.3627761433     -2.4388417909     -0.0885134931
C     -1.1777422799     -3.0312666384     0.3601814809
C     -0.9012895172     -0.4993471437     -2.9037863088
C     -1.2029890245     -1.7225040811     -2.2063829422
C     -0.0706756028     -2.5240991226     -1.7804651307
C     -2.3919422235     -1.7608582706     -1.413831764
C     0.8846610845     -2.6500872881     1.37819215
C     1.7710369184     -1.6515644339     1.9236861568
C     2.9623096755     -1.3395380738     1.1662759539
C     1.1631893635     -0.6095447796     2.6932386661
C     -0.5608042124     -2.6050389947     1.5986058605
C     -2.5091700646     -1.1686393954     2.0303575004
C     -1.161642249     -1.5650589987     2.3741631227
C     -0.2764495588     -0.5474551669     2.8847072879
C     -3.0907263296     -1.6547735002     0.8191058612
C     -2.8755076755     0.2255386487     2.0711927284
C     -1.9380160505     1.2193934744     2.3558027782
C     -0.6707773428     0.840191222     2.8658815663
C     -3.6032087254     0.5901915153     0.8450498785
C     -2.8530545074     0.6356826572     -1.8684915788
C     -3.2398215626     -0.5917024343     -1.2680642055
C     -3.7321311421     -0.5533193465     0.0802196594
C     -1.7629064929     0.6100811264     -2.7606221084
C     -0.5706015119     3.0417498432     -0.5305045756
C     -1.485622221     2.5353480215     -1.4786661048
C     -0.9524269587     1.8124858908     -2.5763730775
C     -3.0152855739     1.7967941224     0.315349252
C     -2.0240512621     2.2519353635     1.3001007949
C     -0.8636699306     2.8823613374     0.8940726725
C     -2.7139330983     1.8601400783     -1.045787236


