52

 C     0.9855887346     -2.508893446     -1.7765449414
C     2.0775061889     -1.5656973244     -1.9331616457
C     0.8908840518     -3.2766675186     -0.5983706892
C     3.0765490946     -1.451821713     -0.9425036151
C     3.5186492035     -0.1217070173     -0.515272309
C     1.5134830956     -0.3560215189     -2.530092371
C     2.0447379864     0.8835278099     -2.2304253928
C     3.1123249624     0.9988318695     -1.2347770441
C     2.8776698129     2.2332256691     -0.5331758886
C     2.7747238287     2.2700779768     0.8614780208
C     -1.5433385299     -2.9694796497     -0.5671739048
C     -1.4775302959     -2.1967013177     -1.8164310253
C     -0.3913472043     -3.2969094685     0.0907631317
C     -0.2223530406     -1.8845992711     -2.3268692448
C     -3.0062346752     1.1638592713     -1.3290022591
C     -2.5256570553     -1.2098245847     -1.7660355659
C     -2.237875109     0.1661616101     -2.0679639782
C     -0.2937660975     1.8434555614     -2.1571693336
C     -0.8630732524     0.5251003564     -2.4937273152
C     0.0762879286     -0.5329564808     -2.7113271593
C     1.1384171377     2.0183343121     -2.0667423899
C     -2.6284534971     -2.4375709979     0.1948668164
C     -3.3633777491     -1.5521192293     -0.6080229531
C     -3.7823370535     0.7650139008     -0.1363736828
C     -3.8763306619     -0.5311998216     0.2437001147
C     -0.158617059     -2.78746577     1.4865548378
C     1.1998082308     -2.7215587253     1.6615819976
C     -3.1852289535     -0.6664011609     1.5705018861
C     -2.3740022344     -1.7992150391     1.5022701382
C     -1.036679799     -1.7557259959     2.0188523186
C     1.8877514691     -3.1189215048     0.4110567188
C     2.9508882174     -2.2607324428     0.2376514882
C     3.0104580097     -1.3476352069     1.3992325976
C     2.8622449224     1.0400898007     1.5979969597
C     3.4319510319     -0.080434451     0.9599586518
C     -2.6644629727     0.5973027463     1.9595525856
C     -1.2830421142     0.7372773784     2.343419282
C     -0.4662870756     -0.4907280767     2.4623261956
C     1.010450416     -0.3797130083     2.5177269531
C     1.8309282028     -1.5230081591     2.1741134872
C     1.6224014569     0.8920387922     2.3345646267
C     -3.2570633213     1.546799548     1.0237068742
C     -2.5114951282     2.5567707859     0.5157794869
C     -1.2294825195     2.8822085991     1.0259106211
C     -0.6162094606     2.0060714137     1.9998128491
C     0.8117069871     2.0865016945     2.0618765526
C     -1.0639778278     2.7042220629     -1.3098727433
C     -2.3834483957     2.3587986481     -0.9654369868
C     0.9293525048     3.3976389166     -0.0221125169
C     1.7100559639     2.8969507799     -1.1078661456
C     -0.4447308264     3.30688703     -0.1171331997
C     1.5415724711     2.9465623665     1.2083491089


