52

 C     -3.8778100579     -0.5169953569     0.5247095854
C     -3.7255834316     0.8463827113     0.3567614396
C     -0.9155266513     3.0513601394     0.7197373486
C     -2.1539456185     2.5734007493     0.3476553292
C     -2.8583436098     1.626662559     1.2037176689
C     -3.0841798282     -1.2263075047     1.5057339632
C     -2.2148296767     -0.4758813312     2.3329128904
C     -2.1557979049     0.9817957082     2.2314280272
C     -0.7894292421     1.3860676159     2.5274962453
C     -0.2021553651     2.4539761848     1.866348794
C     -2.540172902     -2.3834842857     0.8298278105
C     0.0661769131     3.3308492419     -0.2800775836
C     1.3618244458     3.0495778175     0.2727201623
C     3.1977533226     1.6044566016     -0.3100717136
C     2.1862688329     2.4707248134     -0.7326088283
C     3.194543591     1.0802499966     1.0535569793
C     1.214953872     2.4220051057     1.5425060288
C     2.0571466468     1.304926863     1.899452045
C     0.0043410899     2.6813745129     -1.5416437042
C     -1.2057613988     1.9911122344     -1.9233694049
C     -2.3562247967     2.1291715782     -1.0482812206
C     -1.0645815754     0.7533417282     -2.6245550217
C     0.251138872     0.1508152422     -2.7630640447
C     1.4523275117     0.8479259421     -2.432568957
C     1.3280608684     2.1488331415     -1.851120083
C     -2.0303911654     -0.312059482     -2.4657531555
C     -3.2071776113     -0.1053087416     -1.7288018713
C     -3.3571254176     1.1419296064     -1.0387659324
C     -1.273692345     -1.5609822343     -2.3259848367
C     -3.633048561     -1.1461730999     -0.7973429006
C     -2.8670773779     -2.2721730264     -0.6060345955
C     -1.6509270024     -2.4890714269     -1.3477196941
C     2.4361596512     -1.3818077734     -1.8031800738
C     1.1468151303     -1.9793743876     -1.8169457045
C     0.1204636553     -1.2633628524     -2.5133162706
C     4.1650064458     -0.536582317     -0.4238407237
C     3.6002458217     0.5234022754     -1.1745141951
C     2.5896283553     0.0328082229     -2.0874986538
C     3.3829099639     -1.696338117     -0.7480056037
C     2.9041045053     -2.3212963115     0.4357446233
C     1.5867284357     -2.7571187863     0.5259432506
C     0.7250975395     -2.7950455807     -0.6529351426
C     -0.6401164482     -2.945593095     -0.4091699647
C     3.1421558753     -1.3376263959     1.5301491841
C     3.793500371     -0.2357986824     0.9514072857
C     0.0041732714     0.1949412591     2.7890822532
C     1.9287905066     -1.1714234065     2.2245464136
C     1.3992417335     0.1414478158     2.529005647
C     -1.2068368603     -2.7525521412     0.9487565087
C     1.0142521577     -2.1991847402     1.7518125704
C     -0.3686884646     -2.1148738603     1.9455269197
C     -0.874366073     -0.9431347294     2.6006309062


