52

 C     4.274250198     -0.7779573629     1.1733906261
C     3.3046347556     -1.7980927812     1.1724216752
C     0.8278546607     -1.85569199     1.5816200088
C     2.1248438478     -1.3885140489     1.9362334777
C     0.656536211     -2.4721655177     0.2894201497
C     -3.0793904008     -2.2510588463     0.176294826
C     -1.7704170519     -2.4336607522     0.6211374765
C     3.6249683245     0.3662744212     1.7865683269
C     3.6712639738     1.4412752059     0.9051116059
C     2.3059355052     -0.014414668     2.2866697203
C     2.4955024584     2.2443676264     0.6459678898
C     1.2691352848     2.039789459     1.3711549393
C     1.168937263     0.8734295399     2.2217067082
C     -1.5923300938     -1.6163612579     1.8291633864
C     -0.3092392624     -1.1508102883     2.1571179011
C     -0.1340496689     0.2675514016     2.4467773077
C     -1.2791457996     1.0903578709     2.3164909157
C     4.2681863233     0.980038871     -0.3878057154
C     3.4078435054     1.4453319366     -1.3821753529
C     2.4039573746     2.3325708988     -0.7540488884
C     -1.1574760651     2.2168913497     1.4268091516
C     0.042141069     2.4729605984     0.7300317608
C     3.7834330025     -1.3137683042     -1.0653701666
C     2.8114384268     -0.8393554451     -2.0077641491
C     4.5088998508     -0.4154835189     -0.2361655863
C     2.6434413272     0.5604480222     -2.2181327251
C     1.2793730253     1.0893005755     -2.3169877318
C     1.592147554     -1.6169851905     -1.8285602143
C     0.3092046272     -1.1516521793     -2.1561936508
C     0.1340898226     0.2665288645     -2.4464017251
C     -2.4953090807     2.2443137488     -0.6469811562
C     -1.2688254836     2.0393174417     -1.3716100657
C     -1.1688975747     0.8724598299     -2.221934565
C     -2.3056605206     -0.0149567629     -2.2857220909
C     -0.041973781     2.4725043982     -0.7305986995
C     1.1577665481     2.2163556001     -1.4271013771
C     -2.4037010756     2.3321226622     0.753199664
C     1.7706365359     -2.4338447078     -0.6195991118
C     3.079370963     -2.2517364763     -0.1753979709
C     -0.6566073283     -2.4724326666     -0.2878271438
C     -2.1247682516     -1.3902818394     -1.9356672445
C     -0.8282279661     -1.8567517804     -1.5806081697
C     -3.3043725457     -1.7979657228     -1.1715527223
C     -4.2750033617     -0.7780476296     -1.1741342606
C     -3.6707910401     1.4412032688     -0.9056472619
C     -3.6248763153     0.3654953493     -1.7871817687
C     -3.407987138     1.4458472381     1.3815741805
C     -4.2684804987     0.9807720225     0.3866844293
C     -3.7835448999     -1.3131332918     1.0651994267
C     -2.811923713     -0.8385934532     2.0078958057
C     -2.6439189141     0.561210248     2.2174816136
C     -4.5088446072     -0.414991967     0.2350365407


