52

 C     1.5932789863     3.0585982747     -0.4607075592
C     1.3982501481     1.8879578621     2.0650632243
C     -1.0089164511     2.1971274384     1.9748656542
C     0.3086220973     2.6379358507     1.5837755051
C     0.4369428465     3.2812229138     0.28386635
C     1.1928528331     2.6150099254     -1.8118217231
C     1.9830043128     1.4980855443     -2.146937941
C     1.3386568175     0.3808393973     -2.7203445798
C     -0.2080628595     2.6205248045     -1.912813233
C     -2.2200660313     1.1944271404     -1.9914800891
C     -0.8946439194     1.4748275287     -2.4827822987
C     -0.090459335     0.3660039641     -2.8789425707
C     -1.959492044     2.9115514394     -0.2189173771
C     -0.7022449649     3.2172325517     -0.6679972291
C     -2.7891564146     2.0126112857     -0.996889084
C     -2.1252099549     2.5258368086     1.1887501924
C     3.4044238978     0.0076444846     -0.7713776752
C     2.758412959     -1.1442095084     -1.4098886011
C     2.9840952254     1.3046958726     -1.083391143
C     1.7638610082     -0.9609501505     -2.3692393625
C     0.5940167512     -1.8226879107     -2.4065032878
C     2.5764536527     -2.1787797953     -0.3759211584
C     1.4353840586     -2.9845134832     -0.3762330617
C     0.48588739     -2.9129529898     -1.49751133
C     -0.7766528688     -3.2909877018     -1.033289468
C     -2.6656121654     -0.2005139619     -1.7609137983
C     -1.8373104362     -1.31231053     -2.110593116
C     -0.5510547165     -1.0185940944     -2.6924838557
C     -1.9470120017     -2.5082381497     -1.2907447646
C     3.6033188955     -0.3341706353     0.6138755951
C     3.0260963921     -1.6676038806     0.8588686255
C     3.2145948302     0.5175251061     1.6306906281
C     2.6434446122     1.7974944789     1.332109191
C     2.6784087265     2.2583068187     -0.0056272427
C     2.1421371523     -1.5825465634     1.9726701413
C     2.2804252221     -0.2325920426     2.4798334104
C     0.6696440175     -3.1451600498     0.8428320749
C     0.8621302741     -2.2219676026     1.936013473
C     -0.3134469704     -1.4698277069     2.4439933827
C     -0.1500326689     -0.033169298     2.7629140829
C     1.1671987409     0.5605288336     2.7079595287
C     -1.2270564568     0.8587395088     2.5648627924
C     -0.6526361905     -3.4903603985     0.4262370616
C     -1.7441235215     -2.9187473935     1.0192758228
C     -1.6102566032     -1.8851971112     2.0084066625
C     -3.4523041245     -0.2107413913     -0.5547228239
C     -3.2507064847     -1.2578184056     0.3875281492
C     -2.6585474109     -2.4337561978     -0.0435105592
C     -3.4763651666     1.1327991607     -0.0670532299
C     -2.6624493223     -0.9275662875     1.7295187172
C     -2.5118164598     0.3973713658     2.0929672398
C     -3.0558863042     1.4311048805     1.2317606581


