52

 C     2.5911372932     -2.2229239246     1.4467543985
C     2.5957457462     -1.0588580775     2.1754139636
C     1.5412150147     0.9971603604     2.3271310066
C     1.3398919715     -2.815007377     1.0711480892
C     0.0990135011     -2.2943679749     1.5650350625
C     0.1246903592     -1.056034973     2.3640854643
C     1.3811073352     -0.4229777749     2.5835254839
C     -2.3014429935     -0.8303294081     2.0715148429
C     -1.062191176     -0.2118560911     2.4042712212
C     -0.9128069132     1.2330445779     2.2082315307
C     0.4109403892     1.7929701066     2.0252687152
C     0.609153023     2.8484544643     1.0207302542
C     1.4433516786     -3.035302057     -0.3443654863
C     -1.0973870947     -2.5525081537     0.7695360098
C     -2.3190769868     -1.9952300552     1.226893348
C     2.8464530274     1.2104303063     1.6641035582
C     1.8118180354     2.9765410155     0.3388050376
C     2.9365845396     2.1283521944     0.5806724179
C     -1.7205519799     2.6416079921     0.3309538839
C     -0.4677779651     3.0441985011     0.0412202574
C     -3.2601759111     1.3360004614     1.3800046418
C     -4.2319291528     -0.6760678219     0.7030959141
C     -3.4764904582     -0.0370905924     1.7083405828
C     -2.0217364893     1.9307533918     1.5791453314
C     3.3622457891     1.6173617066     -0.6935992754
C     2.7439034075     -0.2099142967     -1.9786173092
C     2.2537651333     -1.5065896148     -1.9356891605
C     0.0907537474     2.8153570283     -1.2864931283
C     1.4871439866     2.9381151046     -1.1209950644
C     2.3612209813     2.0459015261     -1.6979116549
C     0.4484102844     0.7149178309     -2.5350844029
C     1.8629610568     0.8920048316     -2.3729845694
C     -0.4826359564     1.7552387187     -2.0613559521
C     3.6630603104     0.2627173282     -0.8974200433
C     3.869613245     -0.5635396408     0.255575956
C     3.461491519     -0.0471866925     1.5210835261
C     3.3994295122     -1.9340788217     0.2164586248
C     2.6638262423     -2.3858878507     -0.8481514552
C     -2.5890703092     2.1017436418     -0.7197998849
C     -1.9062780296     1.4534197791     -1.8273477728
C     -2.4116943252     0.1499478874     -2.1681922872
C     -1.425932684     -0.9221867332     -2.3031945221
C     -0.0444236117     -0.6678691809     -2.5186773527
C     0.839557353     -1.7195428589     -2.1499298665
C     -4.2048017963     0.2483518545     -0.4512841468
C     -3.6677658729     1.4930996155     -0.0427008239
C     -3.5589750319     -0.3980456434     -1.5226809607
C     -3.1699698403     -1.7452036435     -1.0412943971
C     -3.4660301655     -1.8340264067     0.3275182492
C     0.3804182939     -2.7341950856     -1.1914048713
C     -1.8842412752     -2.0539596558     -1.5229709497
C     -0.9355067572     -2.6969198185     -0.674372034


