52

 C     0.859446015     -3.2454349941     -0.6699553365
C     2.0319417146     -2.5445367039     -0.5304729801
C     2.4129035739     -1.5362718383     -1.4845820462
C     -0.1177720831     -2.8136485261     -1.669386579
C     0.067834579     -1.5247154768     -2.3032129775
C     2.6037905647     1.2517573938     -1.6255731591
C     0.1454921976     2.6921297227     -1.666535337
C     0.2121523279     1.4009092017     -2.3287491205
C     1.457452371     0.6135027611     -2.247915648
C     1.3771373642     -0.8479264229     -2.216071294
C     0.1874879895     -3.6388656448     0.5280498214
C     -1.1741150648     -3.7513350908     0.2095401032
C     -1.3798827984     -3.1959496449     -1.1336441802
C     -1.1000673132     -0.7265710078     -2.4699627493
C     0.3402627392     -2.7031973569     1.6695574233
C     1.4725027531     -1.8806113471     1.7884758036
C     2.5186578619     -2.1384049477     0.8016897773
C     3.5216895595     -1.2109622913     0.5853329118
C     3.6034210871     -0.0118987076     1.3030796328
C     -0.9691463286     -2.2089525376     1.9885527008
C     -1.1768185933     -0.842555513     2.3230345197
C     -0.0275466647     0.0691564893     2.4488764924
C     1.321080358     -0.4940426414     2.2833950051
C     2.4155846996     0.4037069589     2.0509855516
C     -1.5805885932     1.9981236072     2.0171983856
C     -0.2420032567     1.512107691     2.2414035955
C     -2.4647122449     -0.305551926     1.933367682
C     -2.6364192398     1.0663167126     1.847955173
C     -1.8852850916     -2.8769604554     1.0693096797
C     3.0521662107     2.0708840358     0.5417335485
C     3.9442573507     1.0360744528     0.3659367698
C     -0.8036422659     3.5313475285     0.2667395514
C     0.5406003375     3.2416808679     0.5900730677
C     0.8518854648     2.312912229     1.6780432226
C     2.1430092652     1.7606246851     1.6570585383
C     -1.8299309452     3.0150894272     1.0146096017
C     3.6705891544     0.4957905688     -0.9977944897
C     3.5128490212     -0.8587985094     -0.8877562373
C     1.182137919     3.006169256     -0.6814012939
C     2.386719085     2.3615542157     -0.7297424085
C     -2.2881768255     2.49114779     -1.2519709845
C     -1.0587248404     3.2018267016     -1.1646661447
C     -2.2818748803     1.259752961     -1.9457283457
C     -2.889192196     2.532693408     0.0710698754
C     -3.0239960302     0.1249335721     -1.4218486744
C     -3.5646416274     0.1843617335     -0.1226614068
C     -3.4195000619     1.3981774778     0.6165956516
C     -2.3580282474     -1.0987133223     -1.859738941
C     -2.4663026181     -2.2720186068     -1.108430353
C     -2.8539532456     -2.1313224127     0.3116765499
C     -3.2059764694     -0.8993323848     0.7975239636
C     -1.0347840385     0.7258768615     -2.4830839121


