52

 C     1.8597023751     1.6012072731     -2.0096063763
C     1.1428172509     0.4885704176     -2.5679797246
C     1.786355016     -0.8038272096     -2.4088411726
C     0.9877325873     -1.9971774918     -2.1429439533
C     -0.3535951192     -1.9490005787     -2.3104197888
C     1.1579679726     2.7530587922     -1.6453239947
C     -0.3116024495     0.569469825     -2.642973774
C     -1.0163158349     -0.6914042879     -2.7036533512
C     1.2461113158     -2.6889264828     1.4086989293
C     0.7344144308     -3.0506101067     0.1052841937
C     1.5838685649     -2.7349061005     -1.0095217461
C     -1.2462176034     -2.6891394179     -1.4082876544
C     -0.7345326248     -3.0505827718     -0.1047941632
C     -1.5839675525     -2.7346945509     1.0099610331
C     -0.987792494     -1.9968028678     2.1432606403
C     0.3535403438     -1.9486593326     2.3107488368
C     -2.5131766425     -2.0878997853     -1.5578677376
C     -3.3371381351     -1.8241292953     -0.4606282564
C     -2.8664626215     -2.1602577787     0.8223373261
C     -0.2509754496     2.8570236976     -1.6697214786
C     -1.0434072391     1.7313186673     -2.1038676114
C     -2.3375926317     -0.8099947724     -2.293157416
C     2.8664319767     -2.1605514997     -0.8220185556
C     2.5131249443     -2.0877635365     1.5582295815
C     3.3370260754     -1.82414502     0.4609057609
C     2.9986237892     0.2347315923     1.5716818532
C     3.6741292149     -0.3881295207     0.4752995614
C     2.3414394581     1.5094251202     1.4257999118
C     1.0162991169     -0.6910282712     2.7037841582
C     2.3375642923     -0.809716869     2.293283
C     -1.7863729449     -0.8033601617     2.4089408154
C     -1.1428070375     0.4890202526     2.5679073297
C     0.3116246045     0.5698781143     2.6428940624
C     1.0434550827     1.7316073925     2.1036156706
C     0.2510612307     2.857257312     1.6692708492
C     3.4805435612     0.1124296896     -0.8423920221
C     2.9632666589     -0.9532977647     -1.6596912344
C     2.9044203065     1.3753291083     -0.9912212306
C     1.6511850276     3.1569266572     -0.2991661234
C     2.5747391759     2.1734984184     0.1646926476
C     0.5983611997     3.5742273451     0.4489132081
C     -1.8596497088     1.6016135496     2.0093438299
C     -1.1578843412     2.7533992415     1.6449067761
C     -3.4805240241     0.1126976451     0.8423518652
C     -2.9632967557     -0.9529084013     1.6598169077
C     -2.9043344053     1.3755993839     0.9910155306
C     -3.6741786588     -0.3880622989     -0.4752508929
C     -0.5982077505     3.5741675967     -0.4494560495
C     -1.6511061833     3.1570853156     0.2986325835
C     -2.5746289783     2.1735531639     -0.1650298118
C     -2.3414066172     1.5092942979     -1.4260596026
C     -2.9986417692     0.2345763044     -1.5717131403


