52

 C     -4.037087324     0.4421814419     1.010171431
C     -3.6817374821     1.4475672548     0.1363475776
C     -0.6141453324     2.8598055635     -1.0753982383
C     -1.9133154748     2.4167138822     -0.9863573973
C     -2.5310914022     2.2475305352     0.3228045246
C     -1.6549446558     2.0219047758     1.4490385636
C     -0.3675436013     2.6076305182     1.3422031441
C     0.0499898688     3.1995746567     0.127151314
C     -2.9207187949     -1.4340471367     1.7835258913
C     -3.0002419883     -0.01493222     1.9718574566
C     -1.7914717225     0.7265348579     2.1486735209
C     1.0317619472     -0.0562545621     -2.5716235115
C     -0.0293599299     0.8916739364     -2.4410024062
C     0.3617006104     2.1412941737     -1.8878852396
C     1.6887311871     2.3237368743     -1.2938439276
C     3.6325965234     1.1749832617     -0.2753134387
C     2.7486253545     1.3553883333     -1.4176854036
C     2.4324469664     0.215947694     -2.2379596642
C     1.4659872979     2.9623996997     -0.0495687795
C     -1.4274939791     0.4127180073     -2.3429537694
C     -2.396428126     1.3284472613     -1.832634228
C     -3.6167982339     0.8739252305     -1.2608903842
C     -1.7010936487     -1.0206014195     -2.0987745901
C     -2.9456957904     -1.4364206559     -1.5351744377
C     -3.9772894848     -0.4558852245     -1.2053554093
C     0.7351206331     -1.4368494239     -2.2997883641
C     -0.5283486244     -1.8325672565     -1.7832944438
C     -2.9064208337     -2.3479937523     -0.400664001
C     1.9205301279     -2.0125443951     -1.7954603903
C     -0.4884274192     -2.5693868523     -0.5377834625
C     -1.6813902654     -2.6419584933     0.2042862564
C     3.886917805     -1.2142907404     -0.8331754689
C     3.0265518217     -1.0429877073     -1.9070637075
C     4.2582815679     -0.1060575144     -0.0298769978
C     -3.7746697091     -1.7902147258     0.63373146
C     -4.4596477973     -0.7026314532     0.180155602
C     3.2326358486     -2.245919183     0.063484655
C     1.9814666118     -2.63485359     -0.5281054587
C     0.7552301851     -2.644364679     0.2227816418
C     3.2473143851     -1.7191426565     1.3375753514
C     1.9727268126     -1.4646840117     2.0123767368
C     0.7586907175     -2.0123776395     1.5219111466
C     4.0419264171     -0.4897176531     1.3527409505
C     2.0065831407     2.4173902988     1.1400892583
C     3.2359837302     0.4898935527     1.9372503928
C     3.1269190603     1.6126701396     1.0309391738
C     -1.6773717155     -2.0395258616     1.5775502273
C     -0.4917924175     -1.4057338926     2.0003958273
C     -0.5401150266     -0.0117414844     2.3719108158
C     1.9746487147     -0.0883605404     2.3950064979
C     0.7489816751     0.6907367793     2.4145016547
C     0.8323017693     2.0113659963     1.939152048


