52

 C     0.6051069214     -2.0062487491     2.5515639879
C     -0.3123656066     -2.8401288128     1.7839280013
C     -0.0714260588     -0.8160525601     2.951448268
C     0.5673648047     0.4773851152     2.7958592135
C     1.935375572     0.4640952594     2.4175859023
C     2.5185081781     1.5480001012     1.6085453393
C     1.7151633239     2.5889317751     1.1552504585
C     -1.4450009402     -1.0078280714     2.5906399735
C     -2.250021456     0.0864548475     2.3134239265
C     -1.673433643     1.4384806427     2.2237621426
C     -0.2756947698     1.6366590078     2.4065089089
C     0.3319145279     2.6957718512     1.6252665342
C     -3.2710500318     -0.0483313921     1.3339239906
C     -1.7222051507     -2.7396649738     -0.6331378875
C     -2.3447162787     -2.2202730827     0.5369618297
C     -1.572264712     -2.2469597332     1.7660848372
C     -3.2812171836     -1.1211539389     0.3796672608
C     3.410806418     1.2364104894     -0.6603329421
C     2.4244001297     2.133882243     -1.1817618835
C     3.4770540845     0.9774383867     0.7063184017
C     1.7320415143     2.9489415051     -0.2666575124
C     0.4103267859     3.3220089791     -0.6002383989
C     -0.4106722636     3.3219876215     0.6001170395
C     2.2500183764     0.0865840436     -2.3134429842
C     3.2710465943     -0.0480498321     -1.3339031238
C     1.4451237915     -1.007798848     -2.5905978509
C     -0.3321968581     2.6956576457     -1.6253557632
C     0.2755262145     1.6365654877     -2.4065615516
C     1.673272361     1.4385365367     -2.2238264888
C     3.4366085344     -0.4788210234     0.8845299709
C     2.570296707     -0.7719804868     1.9566064564
C     1.8359358827     -1.9785436262     1.8988218058
C     3.2813304977     -1.1208237532     -0.3796519512
C     1.5725080276     -2.2468879347     -1.7660187397
C     2.3449438177     -2.2200550006     -0.5368964052
C     1.7224949861     -2.7394679525     0.6332268728
C     0.3126622368     -2.840186944     -1.7838498185
C     -0.3663893565     -3.2772518752     -0.5983598734
C     0.3667253773     -3.277184078     0.5984621337
C     -0.6049013244     -2.0064130131     -2.5515066427
C     -1.7154185848     2.588683171     -1.155321419
C     -2.5186498559     1.5476495662     -1.6085911538
C     -1.9354261417     0.4637453807     -2.41758555
C     -0.5674064937     0.4771952343     -2.7958838072
C     0.0715143177     -0.8161726228     -2.9514313175
C     -3.4109777976     1.2360861324     0.6603257677
C     -2.4246294896     2.1336809621     1.1816946618
C     -1.7323495282     2.9487860984     0.26656704
C     -3.4771102366     0.9770308173     -0.7063227823
C     -1.8357384697     -1.9788203567     -1.8987719443
C     -2.5702162721     -0.7723289788     -1.956574137
C     -3.4365914792     -0.4792212609     -0.8845087967


