52

 C     0.7070509216     3.5363552571     0.1561171868
C     -0.7069708432     3.5364654141     -0.1543395644
C     0.8638756467     2.9076063697     1.4136412612
C     1.9934093666     2.0932613221     1.6226061269
C     2.997844494     2.0546596534     0.6269314878
C     -0.4519368902     2.4613534152     1.8697346891
C     -0.6209941462     1.135245791     2.3562731368
C     -1.9408724612     0.5543696845     2.2029821265
C     -2.6571890804     2.4014479063     0.7308177967
C     -1.4483619425     3.0559338173     0.9701090126
C     -2.9569946136     1.2363625211     1.5180857696
C     -2.9977847077     2.0550356436     -0.6258935915
C     2.9004739416     -0.0644687394     1.6433305986
C     3.5830790163     0.7167958052     0.6330869032
C     2.6708837312     -1.4050766406     1.4051650761
C     0.5418493663     0.2137526649     2.4563719616
C     1.8310122329     0.7487802297     2.1955390283
C     1.4614287612     -2.0288602678     1.8998981718
C     0.3433739929     -1.2502271525     2.3219647687
C     2.9635086602     -1.9680203776     0.0625250627
C     3.170489643     -1.0561934182     -0.9995669556
C     3.6413098646     0.2461852601     -0.6739757097
C     2.0723733252     -3.0097850972     -0.153263265
C     0.0284637763     -3.6745421839     0.7450675904
C     1.25952278     -3.2003528049     1.074772788
C     -2.1051129538     -0.8979476348     1.9692744028
C     -1.0159859281     -1.7993458436     2.0424953644
C     -1.1534525082     -3.0153927586     1.2422581892
C     2.9570451268     1.2370559249     -1.5174643929
C     2.6572481345     2.401753813     -0.7296062791
C     1.4484298009     3.056370099     -0.9685639634
C     1.9408935134     0.5554466731     -2.2027007845
C     0.6210259541     1.1364252107     -2.3556898056
C     0.452000039     2.4622954888     -1.8685052804
C     -1.9933633638     2.0941276143     -1.6215460931
C     -0.8638217486     2.9083637025     -1.4121772189
C     1.1533747426     -3.0148043083     -1.2437914087
C     1.0159265202     -1.7983288791     -2.0433739768
C     2.1050739921     -0.8970037316     -1.9697282046
C     -0.3434110639     -1.2490522079     -2.322598172
C     -0.5418426944     0.2150059594     -2.4562624602
C     -1.8309888329     0.7499377048     -2.1951586932
C     -0.0285435004     -3.6741771123     -0.7469037912
C     -1.2595809972     -3.1997774929     -1.0764068792
C     -1.4615005567     -2.0278699143     -1.9009411387
C     -3.170517619     -1.0566284609     0.9990415836
C     -2.9635563497     -1.9679239546     -0.0635106862
C     -2.0724098034     -3.0097924288     0.1517280479
C     -3.6412974578     0.2459289303     0.6740924145
C     -2.6709325026     -1.4043172827     -1.4058724424
C     -2.9004638255     -0.0635760415     -1.6433638704
C     -3.5830709533     0.7171828577     -0.6327359181


