52

 C     -4.0075521853     -0.2648675224     0.2866637583
C     -3.5653074149     1.0249950042     0.6918938976
C     -0.1212140459     3.292609704     0.7261645467
C     -1.4042528325     2.7997437267     0.9733726606
C     -3.3655364034     -1.2604970482     1.1051064197
C     -2.7655778934     -2.2450255276     0.2416881627
C     -1.6258452093     -2.9053527788     0.6825856767
C     -2.5351671498     -0.59333297     2.0385468573
C     -0.1943533966     -0.2205802678     2.7345522055
C     -1.2486811655     -1.1442502799     2.3902204533
C     -0.85851769     -2.3765025787     1.7932843767
C     -1.57455937     1.7371860937     1.9648661327
C     -2.6868599325     0.8675309974     1.8049178605
C     -0.3818220571     1.2218397492     2.5773541919
C     -0.6587545606     -3.3054072666     -0.2975323524
C     0.6594406622     -3.3053232063     0.296911738
C     2.7660444149     -2.2444052294     -0.242107816
C     1.6264487523     -2.9048866694     -0.6831315485
C     1.1954138414     -0.5398696905     2.6032524249
C     1.6158760307     -1.7451383936     1.9366276333
C     0.5711082964     -2.6597909778     1.5390553543
C     2.8007035967     -1.7047654533     1.1269622663
C     -0.5705549974     -2.6596210931     -1.5395529102
C     -1.6155119987     -1.7451093246     -1.9369533595
C     -2.8003486179     -1.7051325327     -1.1272831461
C     -1.19529872     -0.5396275222     -2.603351849
C     0.8590128063     -2.3759897399     -1.793731019
C     2.5352922116     -0.5924247346     -2.0386549237
C     1.2489202317     -1.143542859     -2.3904336768
C     0.1944018009     -0.220026661     -2.7345913936
C     3.3658039538     -1.2595918862     -1.1053412052
C     -1.8972738828     0.712181017     -2.3717579588
C     -3.0315402337     0.7620547439     -1.5743800588
C     -3.5516659418     -0.479113307     -1.0403774188
C     -0.9063350932     1.7856211235     -2.3170074384
C     -3.099062693     1.754494028     -0.4774213546
C     -2.0873982592     2.6736210537     -0.3319376094
C     -1.0530463505     2.807202786     -1.3620756911
C     2.6866809402     0.8684238836     -1.804753921
C     1.5742004872     1.7378821114     -1.9645378809
C     0.3815715188     1.2224043894     -2.5771226528
C     3.5650944976     1.0258607367     -0.6917006862
C     1.4036747488     2.8002181956     -0.9728454603
C     0.1205329165     3.2927718361     -0.7255462513
C     4.0076178888     -0.2639861782     -0.2867138418
C     1.8971293243     0.7121275065     2.3718930482
C     3.0313829572     0.7623856784     1.5745213091
C     3.5517666445     -0.4785736949     1.0402850499
C     2.0868450159     2.6739899272     0.3324405365
C     1.0524661787     2.8071634639     1.3626032831
C     0.9059673318     1.7853723516     2.3173433126
C     3.0987010456     1.7550452858     0.4777502672


