52

 C     -1.3044448474     2.790862172     -0.5615668563
C     -2.2647330324     2.0765884188     -1.3106067214
C     -3.4743390795     1.6752143185     -0.6643243862
C     0.0534993878     2.7834719366     -0.957396774
C     0.5193545394     1.8363585733     -1.9383628674
C     1.9093719842     1.5586086662     -1.9607328059
C     3.9341120829     1.4574480831     -0.749110281
C     2.7996674407     2.2057041844     -0.9859478925
C     -2.744000892     -0.0914834602     -2.0361549072
C     -3.797148145     0.3055845453     -1.1275554761
C     -2.2530454936     -1.3898507673     -1.9892615968
C     -0.3990127507     0.7907204952     -2.38532576
C     -1.7944657783     1.0083172826     -2.1768021254
C     -0.8435622527     -1.6404439941     -2.2848518973
C     0.1140714353     -0.5846284867     -2.4793392029
C     -2.6453309551     -2.2379267263     -0.8463035634
C     -3.3801928137     -1.6762121682     0.2177751692
C     -4.1501277947     -0.4743766516     -0.0227656038
C     -1.5038393819     -2.9846939267     -0.5139970241
C     2.4279715229     0.2439378441     -2.1563222676
C     1.5309139899     -0.8729873837     -2.2024099208
C     -0.4464784784     -2.7553565318     -1.5122733505
C     -4.0730396844     0.3866818103     1.1541905553
C     -2.682844048     -1.4782239113     1.4822694233
C     -3.0696134211     -0.1595274448     1.9606930013
C     -2.3991781439     2.0138654933     1.5109708368
C     -3.5809631967     1.6890920259     0.7345545077
C     -1.3663998232     2.7059063949     0.9015426084
C     -0.695508439     0.4366064206     2.45043889
C     -2.038775096     0.826682697     2.2828827824
C     -0.0140521836     2.5188486966     1.3484737835
C     0.3766721147     1.4110074966     2.1466959974
C     -0.3706269034     -1.0097186341     2.341236942
C     -0.8722835763     -2.8883457245     0.7422639511
C     -1.3593370268     -1.9278515533     1.6969235178
C     0.9762566318     -1.3515740782     2.2853915638
C     2.0784685668     -0.3793925662     2.336974758
C     1.794793413     1.0104767694     2.1241089989
C     2.7339424169     1.765038869     1.3151592914
C     2.180644092     2.6109751979     0.2785730415
C     0.8540064647     2.9160030027     0.2573087004
C     3.2057367695     -0.9596201434     1.6702525097
C     0.5574124856     -3.0077565162     0.5089006616
C     2.7170293672     -2.1055936198     0.9263710929
C     1.4309866641     -2.4502636599     1.4059359383
C     3.7209092692     0.1879616707     -1.4384039456
C     3.9262598078     -0.8433482815     -0.5406337663
C     3.004319323     -1.9329342815     -0.4595950315
C     1.8917591371     -2.0448743397     -1.3848333123
C     0.8225388772     -2.8616226876     -0.9310359816
C     4.0736102022     -0.2368776768     0.8384091126
C     3.8890352522     1.1335621504     0.6976656829


