52

 C     -2.739214283     -1.6612115476     1.327910725
C     -3.3652150387     -0.3820384599     1.3639659496
C     -3.7618136975     0.2274984535     0.1255751378
C     -1.4930980785     -1.8838712109     2.0108726364
C     -0.8521309401     -0.8129552817     2.6960059284
C     0.5610657303     -0.8115040557     2.7830368302
C     -2.7793668927     1.917030852     1.3917737317
C     -3.3474066522     1.651863128     0.1603762537
C     -1.4929882215     0.4942927033     2.7049893834
C     -2.7667285352     0.6518955374     2.1576137228
C     -1.5661393013     0.4418524021     -2.663129177
C     -2.6672038302     0.7595786689     -1.8739056302
C     -2.6455326904     1.9671266149     -1.0497806268
C     -1.4849476976     2.5189136835     1.4918885538
C     -0.8747942628     3.024366263     0.3348641609
C     -1.4637564338     2.7211686807     -0.9640897959
C     -0.365309734     2.4489130884     -1.8724492852
C     -0.4198256092     1.3300134373     -2.7177891188
C     1.3107644548     0.3991585359     2.7687831318
C     0.7071802874     1.6425854248     2.310058217
C     -0.6905616577     1.6997423554     2.3927824565
C     -2.8064768725     -1.6346644836     -1.1484786417
C     -1.6593274145     -1.9498782292     -2.0011552625
C     -3.3372471139     -0.3043169023     -1.1057917688
C     -1.0667226405     -0.9369102827     -2.7489701468
C     0.3759469779     -0.8801252349     -2.9084608451
C     -0.7960467726     -2.8786173548     -1.2650629936
C     0.591846912     -2.7724854947     -1.3481773847
C     1.1976906123     -1.8119148604     -2.2528541585
C     2.0040022788     0.9046517944     -2.4260697706
C     0.769857612     0.5158592575     -2.9384481458
C     -2.6447640275     -2.3334452967     0.0665396796
C     -1.3998327154     -3.0825020224     0.014602783
C     2.6553523033     -1.3615173009     1.9214705735
C     1.38162408     -1.8668926088     2.1252642337
C     -0.671261517     -2.81215812     1.1807348398
C     1.4045779523     -2.8011799025     -0.1449308726
C     0.7566070713     -2.7126823882     1.1342413286
C     2.6417614949     -2.0799349994     -0.41411966
C     3.8584687585     -0.0955355914     0.3935298937
C     3.3035418462     -1.4181779986     0.6337044281
C     3.6404869671     0.5388220031     -0.8055954929
C     2.9235517387     -0.0871453667     -1.8885397295
C     2.4774044872     -1.4117816355     -1.7081112971
C     0.8735848181     2.7431799286     -1.1890522988
C     3.0261884062     1.8683724966     -0.5568675814
C     2.0612480995     2.0912847687     -1.5541519302
C     2.6346031613     0.05584515     2.3500093023
C     3.3232110511     0.8140290344     1.441838366
C     2.7130309862     1.9797023456     0.8209884577
C     1.3970468453     2.4051465092     1.2317852763
C     0.5670276975     2.9705735121     0.2107956335


