52

 C     2.2945399673     -1.2858645244     1.8636378132
C     2.8815085506     -0.0061416115     2.1764858308
C     -0.9615149195     -2.8877756047     1.3488577869
C     0.4079416163     -2.6613293107     1.3746882413
C     0.9211143684     -1.5516066478     2.1109727755
C     3.989674529     0.2473008803     1.350160004
C     2.4256483191     2.0290994375     1.182193073
C     3.6386576094     1.4612190016     0.6266958892
C     -1.9019289545     -1.9521723337     1.8220648896
C     -1.4518416708     -0.6462132671     2.2867382271
C     -0.0195950064     -0.4769261017     2.4756150762
C     0.5533745089     0.888096957     2.4327273596
C     1.9534381482     1.0963466941     2.185609258
C     -0.2769781963     1.9416704217     2.0399894165
C     4.0055612751     -0.8149803933     0.3645998013
C     3.9691089165     -0.2250902839     -0.9267125911
C     3.691169475     1.2448908695     -0.7476695695
C     0.2077772507     2.8546713345     0.9892235735
C     1.4601580068     2.6385455777     0.3461824109
C     3.0908966777     -0.6897573309     -1.9042219935
C     2.2866616866     0.4428596302     -2.3960537746
C     -0.9715621457     2.8185420241     -1.1481973809
C     0.1461878464     2.1261244882     -1.7155719585
C     1.4464139145     2.329534457     -1.0863610783
C     2.5675813216     1.5758159279     -1.5816395741
C     -0.8935689024     3.2199453846     0.2428963064
C     2.2053788067     -1.775469922     -1.6897100553
C     2.1814404491     -2.3679066023     -0.3712422698
C     2.9900553534     -1.7883049697     0.6775951819
C     0.9462680569     -2.9054507238     0.0302133605
C     0.9225203652     -1.4093923289     -2.2971053492
C     -0.2924237925     -2.0004367283     -1.9240744421
C     -0.1878384562     -2.9820536222     -0.8597597533
C     -2.541561999     -2.6871301878     -0.3462480402
C     -1.3256346398     -3.2302642383     -0.0570235243
C     -2.5515783197     1.0849159595     -1.932360243
C     -1.4526789303     0.2322556796     -2.3333186133
C     -1.5532930071     -1.2345659139     -2.0963219165
C     -2.717284714     -1.7347511033     -1.4241052655
C     -0.1375739462     0.8520429038     -2.407636038
C     0.9831496351     0.0027543076     -2.6504480077
C     -2.2858003801     2.3611678375     -1.3707219767
C     -3.6674497756     0.5141972153     -1.1966233815
C     -3.7165439885     -0.8177821596     -0.9321111575
C     -3.0198301651     2.4229104327     -0.0679660002
C     -3.7741350998     1.2671717569     0.0876253809
C     -2.1115755345     2.7781385392     0.9191588389
C     -3.0413565257     -2.0506045152     0.9075038513
C     -3.7530423702     -0.9555646535     0.5578743255
C     -3.5109249412     0.3520789577     1.1474422078
C     -2.3333533218     0.5323242227     1.9970339467
C     -1.7153369518     1.8229241802     1.9193891279


