52

 C     -3.9726625008     0.8542433576     -0.6328486372
C     -3.4731380843     1.9933383467     -0.0309974749
C     -2.4304426815     2.711119294     -0.6258003718
C     -1.6608782192     2.0935517424     -1.6815116599
C     -1.9802072377     0.7915427795     -2.1802726799
C     -3.2636231266     0.2430040464     -1.7451149618
C     -0.1796619135     2.9316722689     -0.0919731039
C     -1.4784247749     3.0059396223     0.4258861074
C     3.2122265674     1.205926378     -1.6119775576
C     2.0826860326     2.0259956012     -1.3919005883
C     -1.0412680035     -1.5311844094     -2.2424854236
C     -0.8167604626     -0.1445106719     -2.4390548979
C     1.701171443     -0.6580781849     -2.1842734548
C     0.5893999798     0.299947266     -2.3726133986
C     0.8286361493     1.6552465073     -1.9312943338
C     -0.2742540156     2.3986471847     -1.4134155897
C     3.0213005778     -0.1687502972     -1.9205736855
C     -3.0944688906     1.6951189431     1.3855070522
C     -3.3799044676     0.3342648016     1.6149641461
C     -2.3892698875     -0.4866570842     2.2170398781
C     -1.7866165256     2.231235193     1.5867116506
C     2.1393834005     2.4886218707     0.0181402556
C     0.9357060314     2.5632230776     0.7305031287
C     0.6914175603     1.6821523135     1.8597996935
C     -0.7171749166     1.4122395681     2.1846570888
C     -1.0915870582     0.0876949988     2.540634414
C     -3.7924501413     -1.3997451799     -0.0993835461
C     -2.8040460662     -2.2711087065     0.5230033555
C     -4.0889721853     -0.1708017044     0.4296207014
C     -2.128300473     -1.8074011909     1.6870890119
C     -2.0044082881     -2.7926207203     -0.5397995362
C     -0.7109219284     -2.0898981808     1.8414418709
C     1.410325515     -2.5784954654     0.7898562082
C     0.0264520298     -2.7863195758     0.8276726074
C     -0.6186348454     -2.9772883576     -0.441370782
C     1.3033152848     -0.6791986197     2.3541809135
C     -0.0865145327     -0.9564983484     2.4536821926
C     2.0885133559     -1.7114336424     1.7335480131
C     3.265619935     1.8868100883     0.6176745184
C     3.0773402182     0.9293392088     1.6616750607
C     1.7479189944     0.7060579412     2.1743418663
C     -2.294311659     -2.0105806402     -1.7503964852
C     -3.3514460431     -1.1656517862     -1.5002016988
C     3.3989374777     -1.9143048928     -0.2092839909
C     2.1212037517     -2.4303094417     -0.473553667
C     3.9565205656     -0.2026158081     1.2814307667
C     3.3903654745     -1.4543538348     1.2303938141
C     4.0747678826     1.2867547757     -0.4319651539
C     4.5581949104     0.0559863212     -0.0609306844
C     0.0004587832     -2.3241483367     -1.5872182959
C     1.3412738809     -1.9568625457     -1.6012708862
C     3.9471931272     -0.9008658707     -0.97796177


