52

 C     -3.3768835745     1.3824274159     0.9500853126
C     -3.8806633464     0.7254420116     -0.1536054406
C     -2.3307051043     2.3596627491     0.851716108
C     -3.2418148723     0.9138559898     -1.4491815202
C     -2.2155408363     1.8692022037     -1.5713079414
C     -1.8235097037     2.6861065786     -0.4166263222
C     -3.8808204823     -0.7246354653     0.1542046727
C     -3.3772930308     -1.3817295831     -0.9495435637
C     -2.9887483969     -0.3887348853     -1.9792714132
C     -2.2156880418     -1.868752226     1.5716566456
C     -1.8240015257     -2.6857079877     0.4169157017
C     -3.2417847143     -0.9132017845     1.449667398
C     -2.3313246018     -2.3592036885     -0.8513633298
C     -1.3815476708     -2.0663615485     -1.9221607297
C     -0.4253791366     -3.0168878198     0.5551494037
C     0.4247689814     -3.0170960456     -0.5545358458
C     -0.0575230586     -2.4083880037     -1.7875330139
C     -1.0067587751     1.5548923869     -2.3057020364
C     -0.7042710268     0.2219191687     -2.7214595418
C     -1.7410296245     -0.7585280381     -2.5009818469
C     1.3811182305     -2.0662252012     1.9225825441
C     -1.0067077328     -1.5546881894     2.3058659345
C     0.0570240207     -2.4080294612     1.788015293
C     2.3308088252     -2.3594813883     0.8518595671
C     1.8234521999     -2.6861999804     -0.4163601656
C     -0.7039019268     -0.2217752165     2.7215654839
C     -1.740486237     0.7588892519     2.5012458485
C     -2.988359082     0.3893286678     1.9797546161
C     1.7408967388     -0.7583395627     2.5011327665
C     0.7043008916     0.2223128007     2.7214318528
C     1.0070776064     1.5551366199     2.3053851161
C     -0.0567488195     2.4083971447     1.7875364146
C     -1.380831266     2.0666529071     1.9223608813
C     2.9886859045     -0.3889265273     1.979364376
C     3.8806691698     -0.7255053787     -0.1540693961
C     3.3770218088     -1.3822358213     0.9498309883
C     3.8808851941     0.7246757675     0.1534517521
C     3.2420074143     0.9134974571     1.4489684699
C     2.2159234822     1.8690658915     1.5709293881
C     3.3771278297     1.3815196982     -0.9503309715
C     2.2152936511     -1.869515484     -1.5712616019
C     2.9884475769     0.3883429808     -1.9798039765
C     3.2415910256     -0.9141634181     -1.4494984393
C     0.0572404836     2.4080220568     -1.7880334606
C     1.3812419972     2.0659550889     -1.9227916369
C     1.7406521298     0.7579867798     -2.501398449
C     0.7038355249     -0.2224727282     -2.7215302214
C     1.0063978206     -1.5553647496     -2.3055538382
C     1.8240592045     2.6858021826     0.4160754743
C     0.4254613498     3.017024099     0.5544838362
C     -0.4248439614     3.0169830636     -0.5550917847
C     2.3311674868     2.3590292206     -0.8522193586


