52

 C     -0.3054486537     -2.7956441457     -1.0674170054
C     -1.6447852676     -2.4035521266     -0.8201495568
C     -4.0478559534     -0.9184314358     -0.2973399402
C     -2.202419338     -1.519774192     -1.785624973
C     -3.4148265613     -0.8482406256     -1.5325177435
C     -1.2896478195     -0.5791072743     -2.4504454894
C     0.109712285     -0.7934844904     -2.4821988246
C     0.5641694117     -2.0439808167     -1.9786101255
C     -4.4666005059     0.4601283337     0.0388281783
C     -3.211393582     0.5960860204     -1.8911013354
C     -3.7599276281     1.3726650673     -0.8881354143
C     -3.9376816349     0.7230745829     1.2758313023
C     -3.2241486098     -0.4403164473     1.8108530979
C     -0.9823444041     -2.0958244552     1.561820901
C     0.2149687265     -2.8033650435     1.3154428269
C     -2.0054105746     -0.0114134324     2.3573858478
C     -0.8642842028     -0.8481158999     2.3158680111
C     1.4436901293     -2.3674376166     1.8620798356
C     1.5926580576     -1.0430151186     2.3822914099
C     -2.8178668106     2.2061292886     -0.1249140076
C     -2.9817211943     1.8264333891     1.2401689734
C     -0.589485598     1.9238669994     1.7014347643
C     -1.8479635732     1.4305769879     2.0135100256
C     0.4462410971     -0.2296412475     2.5258151744
C     -2.0841511717     -2.21356348     0.5752863534
C     -3.2729682626     -1.4897315422     0.8127551652
C     0.5005848932     -3.3107821     -0.0389889311
C     2.4697795429     -2.5292186615     0.8442124532
C     1.8756574313     -3.0471062063     -0.3257703127
C     2.7957625909     -1.1466858504     -1.5836220817
C     1.9240350599     -2.229646316     -1.5243036186
C     3.7735922123     1.3990479154     0.6226300265
C     3.9664192706     0.5550261941     -0.4823870029
C     3.6764350721     -0.823217715     -0.4283746417
C     3.329352138     -1.3948076557     0.8291549466
C     3.0960455475     2.5884680492     0.1487755169
C     3.0232551612     0.8807336647     1.759518476
C     2.862518429     -0.4954799994     1.8889120671
C     -1.8622932943     0.7322481366     -2.3290595796
C     -1.0084846607     1.7659520581     -1.8000065138
C     -1.4884450103     2.4227526109     -0.5939721849
C     0.8125403489     2.9468040912     -0.0097354013
C     -0.4666938369     2.6478383138     0.4304720156
C     1.9408924787     2.768240363     0.8869600431
C     1.8510940662     1.7375477939     1.9352346377
C     0.5913716172     1.2129995777     2.2361161729
C     3.1934995336     1.1455320569     -1.6270045813
C     2.3761471603     0.1175988975     -2.1878830659
C     0.9988693045     0.3666001649     -2.4699668527
C     2.6741822646     2.371038195     -1.2533035141
C     1.2552438063     2.5665813816     -1.3449497133
C     0.4181205115     1.6576337607     -2.0535658115


