52

 C     -2.0868391823     -1.4518678785     2.023514756
C     -0.9545702166     -2.1931420601     1.7793941468
C     -1.9123363423     -0.0892487526     2.5516316855
C     -0.5823089396     0.454448364     2.723504351
C     -2.9590154831     0.6823829156     2.0220696369
C     -0.3597065452     1.7675280245     2.2347700887
C     -2.9976074159     -2.0328376908     -0.2159398931
C     -1.6970774159     -2.6419445787     -0.5113788751
C     -3.2024639405     -1.4462953012     1.0642296072
C     -0.7645793055     -2.8281790967     0.478516012
C     0.6581606782     -2.8123828931     0.1836155436
C     1.1608998982     -2.4042128673     -1.0914072085
C     2.5403886352     -1.9726869112     -1.1414012725
C     2.6650159463     -1.9036966875     1.313969197
C     1.3522718585     -2.39404818     1.3734585923
C     3.3238089367     -1.8536161208     0.0505601779
C     1.913244617     0.0877134561     2.5509177671
C     0.5832723424     -0.4560407767     2.7230598516
C     0.3605859345     -1.7688437436     2.2336123485
C     2.9597975474     -0.6835724414     2.0205828044
C     -3.3660664966     -1.2851121925     -1.3834697294
C     -2.1953213422     -1.2717297063     -2.2903685369
C     1.882345366     -0.1028545766     -2.599137451
C     0.5151239037     -0.5214201138     -2.6071766422
C     0.18770633     -1.7994833958     -1.9981362348
C     -1.2044694276     -2.1081231897     -1.7964543637
C     2.8939493437     -0.8936781131     -2.009314635
C     -3.8525354297     0.0183120524     -1.289803609
C     -4.0854258919     0.5960432589     -0.0166044264
C     -3.8030866556     -0.1467568866     1.1459718667
C     -2.8946929055     0.8948734403     -2.0077247467
C     1.2038069135     2.1091847391     -1.7956674582
C     -0.1884313264     1.8006558944     -1.9970962171
C     -0.5160722923     0.5229253407     -2.6066927878
C     -1.8833297716     0.1044270756     -2.5983944085
C     2.1944979813     1.2731021861     -2.290441866
C     -3.3237739112     1.853490894     0.0528561216
C     -1.3517539837     2.3931620568     1.3753701129
C     -2.6645528856     1.9029705479     1.3160828071
C     -1.1612632544     2.4048849285     -1.0895883937
C     -2.540803445     1.9733795055     -1.1392901777
C     -0.6581523725     2.8123036208     0.1855013468
C     2.9975316836     2.0329731638     -0.2158627113
C     1.6968990365     2.6422707542     -0.510461473
C     0.7647288977     2.8278783574     0.4798566473
C     3.2028139285     1.445668191     1.0639043694
C     3.3655904118     1.2859408961     -1.3839444099
C     3.803521654     0.1460963905     1.1446245392
C     4.0854419442     -0.5960518886     -0.0184570892
C     3.8520341319     -0.0175637359     -1.2912033573
C     0.9552411253     2.1921182962     1.7802715381
C     2.0875771325     1.4506354285     2.0235820588


