52

 C     2.9129041327     -2.2443156645     -0.5751172775
C     1.7116721466     -2.9840940702     -0.8843537332
C     -0.2923868148     -3.3188923485     0.4116571661
C     1.0736572763     -3.336910156     0.3669360973
C     -2.371782403     -2.744999184     -0.3568844597
C     -1.0588728268     -3.0343011272     -0.789761061
C     2.9730385926     -2.0619436984     0.8103233007
C     3.1724364476     -0.7434731233     1.3572151298
C     3.7025144502     0.2535800979     0.5305575042
C     1.8029090367     -2.6703074307     1.415795105
C     3.3238995713     1.5945690376     0.8230072602
C     2.0165520953     -0.4681120679     2.1905104085
C     -0.0444171714     0.93492158     2.3918258018
C     1.4353101417     0.8193864107     2.2542563627
C     2.1993481915     1.8866272623     1.627682077
C     -1.9539215182     2.2790758872     1.6011116665
C     -0.6080498118     2.1728617957     1.9842528047
C     -0.9848987883     -2.5962796126     1.5023262358
C     -0.2827806699     -1.55091977     2.2013235413
C     1.1597038741     -1.6595490003     2.1702941013
C     -2.3552386657     -0.1003919919     1.9652575664
C     -0.9300316994     -0.2458471758     2.3569308956
C     -2.8503485043     1.2055330825     1.5806360612
C     3.1560515831     2.3129330519     -0.4449133861
C     0.1373099418     3.0436307017     1.058241082
C     1.4706320641     2.9642428815     0.9067019232
C     2.0141093188     3.0880008576     -0.4416837059
C     3.1180782166     1.3157121252     -1.4866287152
C     3.5783854362     0.0808994304     -0.9445004481
C     2.9985789127     -1.0894320289     -1.4419578733
C     1.8340458637     1.4076533249     -2.1038982278
C     -0.4039734337     0.2754984434     -2.3655821112
C     1.073778276     0.2264490249     -2.3911194222
C     1.7438038377     -1.0197876257     -2.1611075903
C     -2.5659470519     -0.9060210737     -1.9544384987
C     -1.1612981696     -0.9859727422     -2.2465592984
C     -0.7225132641     3.1945194324     -0.1323007018
C     -0.2166979739     2.6044501644     -1.3964145309
C     1.1613308615     2.5920145441     -1.5263037965
C     -2.4519724286     1.5440450911     -1.6767909989
C     -1.0431274972     1.5313750876     -1.9959925848
C     -3.1848001027     0.3487737535     -1.7241626019
C     -0.4538186692     -2.1963592207     -1.8053247734
C     0.9766308642     -2.2203474443     -1.8230081028
C     -3.1529669246     -1.8254594755     -0.9827512037
C     -2.0176644848     2.987869088     0.2788448826
C     -2.9446499781     2.3134810351     -0.5108267296
C     -2.3121080053     -2.4049850848     1.1016587397
C     -3.0210735423     -1.2214925575     1.3235466562
C     -3.6226726411     1.379219253     0.3312758221
C     -3.9684950231     0.2605408958     -0.4482927968
C     -3.7701730696     -0.9876596658     0.068486438


