52

 C     2.9845611159     0.9582695674     1.919707954
C     1.1633599763     2.6822069291     0.6279800595
C     0.155790592     3.0281517527     -0.320032373
C     1.621707791     0.9957271891     2.3487894258
C     0.7053478365     1.9574744884     1.8218527182
C     -1.1649449716     3.1545645649     0.0918551356
C     -2.5464423669     0.0038361618     2.1845869058
C     -1.1659361365     0.3748097272     2.4228437662
C     -0.7166281744     1.7216492211     2.0382085753
C     -1.6335291568     2.5538715835     1.289314724
C     4.1763318338     0.7814908126     -0.0431595099
C     3.4438401273     1.6912821343     0.8252486407
C     2.4333085013     2.3830371846     0.0589157693
C     3.4931137099     0.7973574168     -1.2626359985
C     3.0927228958     -0.550787824     -1.6533996092
C     1.9101248933     -0.7279342219     -2.3667984421
C     2.4822720589     1.8442638274     -1.2842488746
C     0.1632044866     2.4318067449     -1.660304476
C     1.2912586103     1.6757413188     -2.0534076728
C     1.0151768538     0.4000491236     -2.6568305335
C     2.4492429593     -2.3579444199     -0.1249170975
C     1.3433250701     -2.6947749748     -1.0158431561
C     3.4122484535     -1.4219522921     -0.5148629118
C     1.0835597215     -1.8866059414     -2.1362096527
C     -0.2845878924     -1.5213492324     -2.4739989563
C     0.2201317754     -3.1125010426     -0.22132352
C     -1.0856813198     -3.0128011376     -0.7235459957
C     -1.3591967081     -2.1318760284     -1.876961634
C     -1.1861528256     2.0516564082     -1.9819033462
C     -1.4831354216     0.7056137882     -2.3872433039
C     -0.325675032     -0.0792697528     -2.7378184224
C     3.3798586969     -0.4623608544     1.7420174311
C     2.2486043912     -1.2556976817     2.0659685885
C     4.0122091633     -0.565027736     0.4937148763
C     1.8857578892     -2.3153284592     1.2181021047
C     0.5029344912     -2.7044384833     1.14452129
C     -0.5147148225     -2.0383448847     1.8940857874
C     -1.8653958411     -2.2835586129     1.4833364081
C     -2.1334249724     -2.821467008     0.1775571274
C     -0.18746701     -0.7147525614     2.4683246174
C     1.1771145852     -0.3644673885     2.5421566814
C     -2.8535780179     -1.2951797706     1.7326478054
C     -3.7549348069     -1.1975999137     0.5414486786
C     -4.0006591487     0.1338897766     0.2902771452
C     -3.1663728451     -1.9903092296     -0.4525201866
C     -2.0369218583     2.6991786409     -1.0173051087
C     -3.1382796675     2.0893941051     -0.5018535276
C     -3.5498497338     0.7657589963     -0.9181241562
C     -2.692344919     0.0272223443     -1.8395542775
C     -2.6073242332     -1.4040542684     -1.6253625651
C     -3.4193695943     0.9011068513     1.437687596
C     -2.9745810032     2.100983061     0.9890254963


