52

 C     1.9983027619     -1.1008290006     2.2548092321
C     0.6513590365     -1.4791367488     2.4945537613
C     0.2118412978     -2.6402753805     1.7717067495
C     0.8500895768     -3.016144507     0.52656105
C     2.2124564895     -2.0271523676     -1.2733202899
C     2.0672270575     -2.4006901581     0.1314579518
C     2.7201010671     -1.5893117353     1.1025885746
C     1.1367153481     -2.2355253856     -2.1507443291
C     -0.3326607828     -0.4130655205     2.809623338
C     -1.7089898095     -0.6911728745     2.5791996777
C     -2.6038795869     0.3015005522     2.0091233891
C     0.1028280379     0.9913211582     2.6424216154
C     -0.808839052     1.9489344511     2.1311014023
C     -2.1868048223     1.6174005241     1.8708939266
C     2.4587100053     0.2557828915     2.510304123
C     1.4930713039     1.2814526787     2.4423149658
C     3.5026064235     0.562027104     1.5840028808
C     3.5695978535     -0.4915692875     0.6690972831
C     -3.4641054081     0.3327258949     -0.3491931286
C     -3.1881755541     1.7448121132     -0.379151865
C     -3.3606742042     -0.3469298598     0.8989270554
C     -2.6020098668     2.3729551776     0.7043146887
C     -0.3884858504     2.9284053185     1.0992359394
C     -1.4670098498     3.1611347287     0.2422737726
C     -3.0434094652     -1.7046690576     0.9027969747
C     -2.8432967958     -0.2443452071     -1.5026520533
C     -2.3174409653     -1.5821445696     -1.4726581351
C     -2.5191029496     -2.3616302346     -0.2550961509
C     -1.1343902226     -1.8329261209     -2.2317980151
C     -2.4052512088     2.0615740469     -1.5701450472
C     -2.1400267374     0.8542593916     -2.2273063552
C     -2.103467063     -1.9518260749     2.0159489787
C     -1.1863729078     -2.8912107753     1.6143937143
C     -1.462900096     -3.224125975     0.2121886206
C     -0.1267572961     -2.7457443296     -1.7528089132
C     -0.2348015184     -3.2880452699     -0.4427994684
C     -1.3297892407     2.9501075043     -1.185456614
C     -0.0551189793     2.7102322653     -1.6877001385
C     0.1779613867     1.6163349684     -2.6119623589
C     -0.8517354573     0.6232806387     -2.8262390197
C     -0.4380367829     -0.7384329676     -2.9599839835
C     1.9283821325     2.2697875982     1.4124915654
C     0.957901646     2.9062450555     0.5893665552
C     1.1266746552     2.8557204184     -0.8344577034
C     3.1541433707     1.4791276584     -0.5702163419
C     3.105953682     1.7489928095     0.838211594
C     2.1642082655     2.0315703121     -1.3892448096
C     1.9360746966     -0.0970712398     -2.6301847495
C     2.8230591601     -0.7359225856     -1.6389148785
C     3.460341816     0.0303788559     -0.6874655023
C     1.5627195501     1.2369853369     -2.4706922818
C     0.9312258524     -1.0431522197     -2.9597172472


