52

 C     2.6905222409     -2.193226578     -0.8965191042
C     1.4473537239     -2.8014463096     -1.0798659502
C     0.5668392245     -2.2448712035     -2.0301771187
C     0.8689216587     -0.9501480148     -2.5963230665
C     2.0471392069     -0.2121616213     -2.2361199347
C     3.0318084676     -0.9393171162     -1.4649876834
C     -0.4566307561     -3.2708760288     0.4165934759
C     -1.3865065993     -2.9237874152     -0.6671720026
C     0.9111678491     -3.1763912833     0.2428916627
C     -0.8662520163     -2.3568119303     -1.8344483197
C     -1.4839896588     -1.1687061288     -2.4196610895
C     -2.5684186695     -2.3267051055     -0.052563362
C     -3.2486188542     -1.246380098     -0.693361976
C     -2.6608896998     -0.6427831813     -1.9103894566
C     2.7456100139     1.8930312552     -1.0227596411
C     1.90912223     1.2554660749     -2.0222770704
C     -0.5216817836     1.0825144606     -2.7071641907
C     -0.4007366098     -0.2932066334     -2.8537081556
C     -1.0025392523     -2.749521349     1.6237387099
C     -2.3265639646     -2.2351580746     1.3437271961
C     -0.2911787133     -1.7850955757     2.3748903671
C     1.1101628023     -1.5989781177     2.1775402173
C     1.727707463     -2.5155957299     1.2442382898
C     2.9292476294     -2.1240653981     0.5762917724
C     3.5601801453     -0.9592987445     0.8694662248
C     0.7349003067     0.8986380948     2.4663088572
C     1.6808249766     -0.244098314     2.3566939008
C     2.9833051065     -0.0017931989     1.7984675132
C     1.1334106929     2.1578073581     1.9186924431
C     2.3904773147     2.2972706004     1.2704288502
C     3.2934003443     1.272828239     1.2253358411
C     -1.2108543299     -0.6589754392     2.6174897405
C     -1.6539656229     1.6770800526     2.0625672492
C     -0.7220555733     0.662328842     2.5699219783
C     -3.3316543138     -0.0283328051     1.4575150633
C     -2.5084481822     -1.0105940037     2.04551326
C     -2.9186486144     1.3340037293     1.5819451588
C     -3.769713571     -0.2113233751     0.0967994639
C     3.6509156595     1.0804869523     -0.2188001144
C     3.7952017057     -0.2477958026     -0.4340727477
C     0.816949301     3.2051616067     -0.1975971059
C     2.1510068824     2.7992699208     -0.1134366524
C     0.0858822216     2.8602808341     -1.3501036649
C     -1.9802459875     2.822704412     -0.0042277915
C     -1.1453737229     2.755444566     1.1957331799
C     0.1956406667     2.9593986398     1.116459007
C     -1.3549675337     2.7167936114     -1.2651618397
C     -3.1228911789     2.0172614351     0.2745013931
C     -1.7502600022     1.646103477     -2.1612710341
C     -2.8292975203     0.8046941576     -1.8305682579
C     -3.5681775211     1.06859044     -0.6260492061
C     0.6228124178     1.8502358163     -2.2349442788


