52

 C     -0.3274471924     3.5202436474     -0.3078386454
C     0.4867126819     2.1909064277     -2.1717521069
C     0.7494658894     3.0705898753     -1.0944760404
C     1.4430629517     1.1400907687     -2.5084567668
C     2.601722768     0.9631162048     -1.7617366385
C     0.6909067906     -0.0116522277     -2.966982425
C     2.82764053     1.8162844654     -0.5732128473
C     1.8802742012     2.7708371667     -0.2050878513
C     3.3256198669     -1.2824616072     0.8256060459
C     3.3990856127     1.0183727194     0.4337341425
C     3.6287637127     -0.3284328992     -0.127612551
C     2.2761041347     -1.4973209743     -1.7907001448
C     3.0720929004     -0.3810400147     -1.4468006289
C     1.0875459813     -1.3056759272     -2.5964683993
C     -1.2682301953     -1.9755840592     -2.2639173765
C     0.0853731555     -2.2821787277     -2.1916938841
C     1.3680770538     2.7897444732     1.1528175064
C     0.0761171418     3.3919290717     1.0852547749
C     2.7437341048     0.8620642686     1.691318369
C     1.5972168909     1.6582127356     2.0237662579
C     -0.9876486281     2.832401436     1.7753627119
C     2.7423465553     -0.5554619921     1.9611970172
C     0.4331951429     0.9906638561     2.6509992461
C     -0.8502439508     1.6268362802     2.5159925038
C     -2.1245494686     2.6908246058     0.8498514032
C     -1.6563978766     2.9835557775     -0.4651077789
C     -2.8068683107     1.5003295683     1.1577072745
C     -3.3187671756     0.7171603282     0.1175773947
C     -2.897173258     1.0047462293     -1.2399540168
C     -1.9354351137     2.0400173036     -1.5250552145
C     -0.8456655447     1.696964485     -2.4113790264
C     1.604663726     -1.2240131156     2.4067759342
C     0.4280296698     -0.471966316     2.797774751
C     -2.0586731865     -0.5115189683     2.381192377
C     -2.0695693826     0.8532499236     2.2728017862
C     -2.8009320738     -0.2634024905     -1.9044612431
C     -1.6761004861     -0.6301062643     -2.688210388
C     -0.7078297857     0.348297382     -2.9469340085
C     -2.7954764258     -1.3432718567     1.4047275744
C     -3.3711461183     -0.7449473698     0.2727120309
C     -3.1239633114     -1.334285871     -1.0038153464
C     -0.8108933749     -1.1823843371     2.7166337992
C     1.9882162249     -2.5338060462     -0.8037419534
C     2.4592816814     -2.3813611166     0.5163634405
C     0.2441188206     -3.0190400331     1.3736161887
C     1.4890903665     -2.4604356693     1.5944550488
C     -0.864952694     -2.449861961     2.0624524812
C     -0.2103206422     -3.3396835259     0.0149886075
C     0.628874844     -3.0106308921     -1.0464042361
C     -2.172356268     -2.3923794062     -1.1907509009
C     -2.034621044     -2.5326379131     1.2329918495
C     -1.6420418917     -3.0318974185     -0.0561300982


