52

 C     -1.882921267     0.7169925711     2.6531690332
C     -2.750685343     1.1675381117     1.6130844508
C     -2.3928494703     2.3399192118     0.9405892347
C     -1.0513603117     2.9228158297     1.1314171237
C     -0.0614074072     2.262956743     1.9327129925
C     -0.543823693     1.1838248347     2.75336437
C     -2.8708950607     -1.2101269843     -1.196890861
C     -3.2342757503     0.0004065104     -0.5184494077
C     -3.2815931274     0.0003225358     0.9141309633
C     -2.7027328469     2.4526738309     -0.4606953231
C     -2.8705282899     1.2108510274     -1.1967253514
C     -1.7413422819     3.2659983951     -1.09665665
C     2.1859910049     1.1880436774     2.0078689601
C     1.3351165199     2.2068362431     1.4703669942
C     -0.6876688816     3.4602886315     -0.1455419643
C     -2.7510168079     -1.1670607834     1.6127999723
C     -2.7035483816     -2.4520465218     -0.4611894291
C     -2.3934327687     -2.339428406     0.9400067137
C     -1.1563390999     -2.442523993     -2.1246591825
C     -1.7421523852     -3.26550083     -1.0973257145
C     0.2505497024     -2.3928049197     -1.9925100498
C     -1.865134256     1.2031414805     -2.2475357651
C     -1.1754047607     0.0002784153     -2.6053622528
C     -1.8654154881     -1.2024577897     -2.2477442254
C     0.2824969433     0.0001270455     -2.7126178001
C     0.9877723867     -1.2411964552     -2.3895049079
C     2.3156818897     -1.2115558955     -1.8759437978
C     -0.6885536487     -3.4599744254     -0.1462950355
C     -1.0520806023     -2.922655611     1.1307238029
C     -1.8830640668     -0.7169368524     2.6529216751
C     0.5643893395     -3.0684364442     -0.7198324257
C     1.6292550207     -2.6068045695     0.0796191877
C     1.3345707186     -2.2073371362     1.4698302869
C     -0.0619440486     -2.2631885489     1.9321146857
C     -0.5440966913     -1.1841096665     2.7530349813
C     3.3369045644     -0.7362311814     1.3167255294
C     2.1856556574     -1.1888644861     2.0075312744
C     2.6661414096     -1.9388628355     -0.6585002536
C     3.6580988285     -1.1534781604     0.0029087134
C     1.5854490745     -0.0004074238     2.6167743709
C     0.2726469614     -0.0002894067     2.9826884019
C     4.0166198357     -0.0003499309     -0.7969813715
C     0.988032444     1.2412276275     -2.3891569828
C     2.3159068752     1.2112812372     -1.8756977836
C     3.0909725288     -0.0001669967     -1.8656423318
C     0.2509731903     2.3929266625     -1.9919311387
C     -1.155750662     2.4430914071     -2.1242802681
C     3.3370819836     0.7353258866     1.3169530202
C     3.6583440836     1.1528004536     0.0031803122
C     2.666584901     1.9384138073     -0.6579938401
C     1.6297975959     2.6063268123     0.080258847
C     0.5649839392     3.0683872649     -0.7191017836


