52

 C     2.624057792     -2.3103931438     1.1291932282
C     1.6098510938     -3.0332735484     0.4736452691
C     -0.7689137145     -3.0594591175     0.5055769187
C     0.3910968543     -2.9035987534     1.1992804734
C     -2.0038176865     -2.4801406971     -1.3029711358
C     -0.7511980975     -2.9306883353     -0.9651953316
C     1.9293929601     -1.3690035844     2.0227684472
C     2.284301387     0.0246779582     2.0240501264
C     3.4317201058     0.4054665999     1.2017088171
C     3.4501844762     1.6675269738     0.5675181919
C     2.4202014165     2.5616947733     0.7881130361
C     -0.191016618     0.519364787     2.4797664358
C     1.1834398449     0.9891212784     2.2338854505
C     1.3415080789     2.3144926012     1.6796702802
C     -1.2785682891     1.4365568044     2.282206208
C     -1.077888228     2.6351537248     1.4557779327
C     0.1857588861     2.9933710078     1.1075766247
C     -0.5270672182     -0.9058869983     2.3563237123
C     -1.8964328594     -1.344438934     1.9336955714
C     0.5562358517     -1.7931355166     2.1439162883
C     -1.9933681141     -2.4563299906     1.0033579988
C     0.4876824719     3.26815554     -0.3133314571
C     1.8426310898     2.9587361798     -0.5078336932
C     -0.4247470473     2.8124816295     -1.2573676561
C     3.4502221849     1.4025839725     -0.9080707743
C     3.7152388379     0.0851203031     -1.1202075234
C     2.2992163099     2.0439309416     -1.4892727308
C     1.3108616663     1.2395353295     -2.2029758371
C     -0.0134107397     1.7347701598     -2.1724950836
C     3.9621503044     -0.5389195727     0.1878189913
C     3.491977764     -1.8144323106     0.125878884
C     1.5056268401     -0.2330765695     -2.3148557593
C     2.7686669351     -0.7732865038     -1.8569463033
C     2.8129194415     -2.0195849279     -1.1956342657
C     0.4336729812     -2.4048696625     -1.6111067931
C     1.6463099143     -2.7667861414     -0.9727101984
C     -3.3407681033     -0.6483200571     -1.5075190975
C     -2.1933328968     -1.2857753536     -2.0705235471
C     0.327432452     -1.1045775717     -2.2924127636
C     -1.1617440808     0.8927653143     -2.3663664702
C     -1.0202089855     -0.5233504789     -2.4531753209
C     -2.3104729589     1.5139278144     -1.7033749725
C     -3.8774432476     0.9232784681     0.1202927874
C     -3.4020599436     0.7503518037     -1.2511958767
C     -3.1726700735     1.7830653119     0.9577758528
C     -2.1599347732     2.6607493888     0.4686528112
C     -1.8000377672     2.6117082349     -0.8957551431
C     -2.945921305     -0.373071649     1.8407955024
C     -2.5976446907     0.9998855481     2.052885676
C     -3.752789651     -1.347956385     -0.2649703958
C     -2.8869034398     -2.4143732816     -0.0935026029
C     -3.9140074111     -0.3936933643     0.7476592172


