52

 C     3.0101762888     0.1876853247     1.6409101572
C     3.2925441475     1.2719970107     0.7727613941
C     3.4889560152     0.9961656136     -0.6222030015
C     1.8344122483     0.2124015323     2.5076316733
C     2.4457243359     2.420326821     0.8632057651
C     1.2679344488     2.4170422021     1.6217068505
C     0.8984298504     1.2796899928     2.4577903532
C     -1.5260147535     1.8233431606     2.0462481238
C     -0.5437463304     0.9907407094     2.6620946346
C     -0.9398402952     -0.3771930595     2.9095996629
C     2.0902118197     2.8552475524     -0.5035202449
C     2.6404232883     1.9413800859     -1.378589539
C     -1.1046344057     2.8613254577     1.0823781094
C     0.2357678742     3.0710997073     0.8156453374
C     1.4571841549     -1.2056685909     -2.5325755203
C     2.3090093863     -0.1647862472     -2.2577356515
C     1.8199512945     1.2108338524     -2.2998063166
C     0.706838782     3.1515372619     -0.5585839735
C     -1.5247987229     2.6339923     -1.329051168
C     -0.1204441509     2.6106715472     -1.6065909395
C     0.4263556106     1.5069843126     -2.4308239607
C     -0.461257476     0.3895458156     -2.8162907676
C     0.0817325005     -0.9246188851     -2.9002981851
C     -2.0040090474     2.8943666494     -0.0052284781
C     3.1963330768     -1.4012060935     -0.266573678
C     2.2127925701     -2.4564100361     -0.521858662
C     3.2856757221     -0.2895368681     -1.1501547252
C     1.4594893346     -2.4219152121     -1.6868138065
C     0.1172980918     -2.8944779604     -1.6539486384
C     -0.6912880664     -2.0538372327     -2.4599138637
C     -2.378803962     1.6032018234     -1.8480051738
C     -1.8679655086     0.4641472792     -2.4759504285
C     3.1484249887     -1.1355861975     1.1231717885
C     2.1387372167     -1.9866477298     1.7212822776
C     0.0199126578     -1.4607252265     2.739743986
C     1.3604141128     -1.1790499181     2.6084539573
C     -0.5875527307     -3.1982213865     -0.4273895076
C     0.1300444254     -3.0922398713     0.8105905662
C     1.5481457959     -2.8143126588     0.7438482753
C     -0.5916607188     -2.5275509803     1.9293745686
C     -1.9310650586     -2.672523864     -0.5766369618
C     -2.6112367881     -2.1508948149     0.5320585366
C     -1.9419899265     -2.165878816     1.7834508233
C     -3.4244890231     -0.2164748049     -0.7999218043
C     -2.5944702342     -0.6960209249     -1.9135743596
C     -1.9718608602     -1.9254355606     -1.8442197881
C     -3.3616190895     -0.8813978769     0.4264353664
C     -3.3737485412     1.2161804588     -0.8359561682
C     -3.0426656558     -0.096110786     1.630795205
C     -2.7793390414     1.2941371703     1.5460277738
C     -3.0788105446     1.9513226033     0.3012946141
C     -2.1696191067     -0.8666146417     2.4257155122


