52

 C     3.317155245     -1.3489330023     0.90493209
C     3.9318610193     -0.4100338014     -0.034945295
C     2.5385204725     -0.8003022108     1.9604840186
C     1.270554589     -1.3868789003     2.2927354729
C     -0.69256407     -2.6300288966     1.5122472156
C     0.735332272     -2.4916737375     1.561253051
C     2.4151522461     0.6520998629     2.1208892796
C     3.054918749     1.5213158234     1.218990717
C     3.826327325     0.942017296     0.1212089747
C     1.0526093846     0.924617446     2.5320185871
C     0.3208726684     2.0636918548     2.011470504
C     -1.0732004787     2.0031832659     1.9811319049
C     -1.6054474815     -1.6265444358     2.1156401994
C     -1.0441687611     -0.4224312357     2.6450429613
C     0.372426111     -0.3198384547     2.7441667445
C     -1.789409186     0.811037597     2.4317037385
C     2.4078098608     2.5180393919     -0.8079787069
C     3.2465436883     1.4943153116     -1.1352349254
C     0.9757637441     2.8421600129     0.9629491801
C     2.3130546087     2.6271241474     0.6652279455
C     2.767287345     -1.9493556743     -1.2948576769
C     3.4477524354     -0.7646799268     -1.4021525996
C     2.819976106     0.386391967     -1.9859593372
C     1.0938267042     2.5922146099     -1.3608806785
C     -0.7649991764     1.4483388497     -2.3607520647
C     0.6274661514     1.5462737168     -2.2452148369
C     1.4628463309     0.3232117652     -2.434725598
C     0.7729169733     -0.9864062086     -2.4291541905
C     1.4566401783     -2.090758781     -1.8210612685
C     -1.8551066821     2.5995104308     0.8806375257
C     -1.1648356795     2.8816387739     -0.3655089969
C     0.2332152151     3.0268672463     -0.3002840197
C     -1.6770545792     2.2834883266     -1.5720439009
C     1.4761215521     -2.9195378165     0.3897933656
C     2.7456277734     -2.3918744592     0.1301453636
C     -0.6144406696     -3.0122550104     -0.9006516371
C     0.7492744085     -2.9648595595     -0.8937024312
C     -1.3197782523     -3.1192022694     0.3529378527
C     -1.373056274     -2.122171065     -1.775483227
C     -2.7678858879     0.3056140153     -2.1710697649
C     -1.4418129332     0.1754595543     -2.6045053755
C     -0.696829451     -1.058743423     -2.4425176164
C     -2.5785011347     -2.4405291769     0.1982526754
C     -3.9298452651     -0.0012180829     -0.1859181464
C     -3.3688912001     -0.6714722392     -1.3047395463
C     -2.6512295762     -1.8914160643     -1.108372269
C     -3.6229399686     1.4493770783     -0.3572797613
C     -2.9373529604     1.6332142839     -1.5622500889
C     -3.0924895017     1.9393401354     0.8536154595
C     -2.8111518808     -1.5974924258     1.3388785966
C     -3.5220627161     -0.3724664984     1.1342222576
C     -3.0367893914     0.8005605933     1.7966982779


