52

 C     -2.951487366     1.0008407115     1.3234223148
C     -1.7923822283     1.641304002     1.8960762678
C     -1.2898405987     2.8127469399     1.2041918916
C     0.1434526494     3.0335083778     1.1230876067
C     1.0091951872     2.3413846064     1.9576203204
C     -3.0793039722     -0.4598618941     1.3388381438
C     -2.2254989715     -1.245434739     2.0926084302
C     -1.0422691966     -0.6400376198     2.678043284
C     -0.8092444957     0.7668706926     2.5945724046
C     0.5533335418     1.1500674133     2.6698254186
C     -1.8630286793     -2.5687353695     1.6166830382
C     -2.1215750316     -2.9554818509     0.259524677
C     2.3252565742     2.1226735184     1.5003891503
C     2.7770968509     0.8329224454     2.0327755558
C     3.5737706433     0.212017435     1.1062376686
C     0.0368080074     -1.5924197192     2.4914226837
C     1.3830669096     -1.1839118863     2.2662654577
C     1.637011557     0.1772068965     2.6015894338
C     0.51988903     3.1531980184     -0.2835078102
C     -0.6779278747     3.1637478623     -1.00503777
C     3.63394086     1.1157161016     -0.0765065735
C     2.7121035372     2.214936646     0.1305918886
C     1.6753495127     2.4885815789     -0.8272884617
C     3.5253763856     0.337497634     -1.1865108743
C     2.4510769093     0.5404547024     -2.1592448834
C     1.4693258449     1.5675442987     -1.9729632137
C     -1.8157999537     3.1764300599     -0.0731410398
C     -2.8341084678     2.4341527416     -0.6545633239
C     -2.2746394494     1.8036511831     -1.9012119461
C     -2.663965072     0.4561662468     -1.9599579517
C     0.0979332894     1.2771108055     -2.4276850278
C     -0.9259529182     2.2209374243     -2.0543360313
C     2.0281656358     -0.751383888     -2.5330435894
C     0.6808186485     -1.1059953147     -2.6880636487
C     -0.3352202498     -0.0983145366     -2.6938520761
C     -1.6965734698     -0.5463814131     -2.3405037007
C     -1.8892741762     -1.8446379872     -1.7742786825
C     -3.4633526465     1.434843882     0.0612122541
C     -3.5161461521     0.2317907145     -0.8057699775
C     -2.7488349083     -2.0354888631     -0.6095612698
C     -3.4254925895     -0.9094503262     -0.0389359873
C     3.5075748694     -1.0953068332     -0.7696719993
C     2.6566920568     -1.7462522294     -1.6238752499
C     1.4408727695     -2.7571813662     0.2638559812
C     2.1765462926     -1.8457688701     1.1842397937
C     3.3058468274     -1.1410935049     0.6579124752
C     1.6464387744     -2.6127397141     -1.1535137636
C     0.1423468618     -3.2307870465     0.6399134446
C     -0.4890067665     -2.764102278     1.8640729832
C     0.4827954162     -2.391292095     -2.0222118441
C     -0.7688174001     -2.7619869181     -1.5926988534
C     -0.8923228077     -3.4242266756     -0.3270370187


