52

 C     0.2401042178     -1.5794441398     2.7205039984
C     1.5830732128     -1.3308869203     2.3539002196
C     3.7187553934     -0.9222934425     0.6197334813
C     -0.7306338711     -0.5623703447     2.7995435285
C     -0.3172508072     0.8029652255     2.6415783466
C     1.0835045621     1.0930723913     2.2826581305
C     2.0813229513     0.0091068985     2.2370608828
C     3.2831331985     0.1599025987     1.4546694827
C     0.2146953886     2.9847025832     0.904726321
C     1.3054940716     2.2034467562     1.3710162991
C     -1.3532040972     1.6922618523     2.2302939951
C     -1.0360663607     2.9030348136     1.5057113945
C     4.0799218845     -0.3575005999     -0.6715229401
C     4.0496534501     1.013278194     -0.6486672806
C     2.4315447675     2.2017272843     0.4800861636
C     3.531700307     1.3828438152     0.6733460273
C     3.1377859806     -0.8872141165     -1.6608178049
C     2.4062530447     -1.9464256497     -1.0603713599
C     1.0662180097     -2.1871458485     -1.414568304
C     0.4348737451     -1.2000428319     -2.3100545542
C     -0.9467127581     -1.280444689     -2.5053361296
C     -1.7298541429     -2.3297268513     -1.843408184
C     3.040882695     1.4203874606     -1.6340595876
C     2.4554277206     0.2215895074     -2.2585368205
C     1.0594754916     0.125559878     -2.4874140126
C     2.8351630585     -2.0136979471     0.3721743249
C     -1.1831140795     -2.9764931785     -0.6743734268
C     0.2124920582     -2.9229426266     -0.4526652991
C     0.6362677435     -2.9459118021     0.9246847698
C     1.8916387324     -2.316425741     1.3207885043
C     -3.2251578061     -1.9486779204     -0.1955630344
C     -2.1542375799     -2.7328811264     0.3911338625
C     -3.0442849273     -1.8965845357     -1.6431461715
C     -1.6759522972     -2.3905940457     1.658547685
C     -0.3076257532     -2.6641060638     1.9324377004
C     -3.5178656149     -0.6708202645     0.3070837709
C     -2.8626279218     -0.2016597906     1.526547198
C     -1.9759526634     -1.0767136636     2.2107308029
C     -2.58669313     1.1973336321     1.6506291787
C     -3.5244512761     0.2420183147     -0.8817377082
C     -3.1207635326     1.5612374135     -0.7577492556
C     -2.9628250562     2.1226576221     0.5783849079
C     -3.0533268921     -0.5046256171     -1.9931494596
C     2.1429229757     2.2576344017     -1.0045121533
C     0.7902191817     2.3551180922     -1.4460292651
C     0.216571543     1.3068767425     -2.289012661
C     -2.0496878678     2.103008167     -1.5840737385
C     -1.2353652794     1.1926929405     -2.3405443
C     -1.7854283801     -0.1123504038     -2.5772145391
C     -1.4288391075     3.1145065517     -0.761755662
C     -0.0439781561     3.1036474239     -0.5869122273
C     -2.0771860272     3.1873696004     0.535214903


