52

 C     3.5142160879     -0.2400383784     -1.7632708099
C     2.5871296642     -1.2923172621     -2.156313984
C     2.9018643924     1.0333577842     -2.0037342004
C     2.9801071498     1.7962937464     -0.7727135476
C     1.949782896     2.6980928381     -0.5061166442
C     1.6244662919     0.7941547191     -2.5598098407
C     -2.2909451117     -0.9787664231     -2.1907840894
C     -1.0483275183     -0.3844556709     -2.5694369826
C     -0.8690037079     1.0663407507     -2.4028559079
C     0.4917097326     1.6243302891     -2.2371522799
C     0.7283690155     2.6882308249     -1.319920267
C     1.4360128866     -0.6783731099     -2.6981827186
C     0.1016424837     -2.4336713872     -1.693418791
C     0.1474040401     -1.2507889021     -2.4983295904
C     1.5510077634     2.8763588309     0.8456324317
C     -1.6386039263     2.6489551535     -0.6471443564
C     -0.3562842615     3.1205790606     -0.4479463805
C     0.1214189205     3.1724478985     0.8849133335
C     -3.402739888     -0.1751832383     -1.7582105144
C     -3.1876902427     1.1751810654     -1.5156326155
C     -1.946653475     1.7868611784     -1.793556006
C     1.8692898169     1.9468424901     1.854327859
C     2.8034338572     0.8821774853     1.5465163091
C     3.4484762734     0.909060593     0.2738847221
C     2.5093244911     -0.4228897945     2.1259756097
C     0.5974122996     1.6931840635     2.5653066362
C     0.3352390672     0.4316471363     3.0476791769
C     1.3570407049     -0.5763495615     2.8975900777
C     -2.4387106212     2.2137436285     0.4814661076
C     -1.7909714671     1.8535680234     1.7128802135
C     -0.489933813     2.4282323651     1.9127953671
C     2.6311162567     -1.6655576172     1.3253443959
C     3.188443435     -1.6212914143     0.0685438945
C     3.7589140638     -0.3613367653     -0.3991680724
C     1.4255056603     -2.4811855744     1.5795734797
C     2.4658527059     -2.2272985682     -1.0806587396
C     1.2207768031     -2.805336679     -0.8735676847
C     0.7026579594     -3.0136463022     0.4907856059
C     0.6933315663     -1.8299531487     2.5920829594
C     -0.7030045809     -1.6036044041     2.5093824869
C     -2.7049190677     -1.6718414312     1.1472023465
C     -1.4667498378     -2.2694017174     1.4896934292
C     -0.7220826596     -2.9601212131     0.4615453887
C     -3.4748869328     1.4009902533     -0.0636598574
C     -3.8970622306     0.2154318174     0.5157957784
C     -3.0402612558     -0.3344731314     1.5599580223
C     -2.0521594954     0.488463749     2.2265407998
C     -0.966169097     -0.2061393756     2.8227039966
C     -4.0358459851     -0.7659536349     -0.5601797818
C     -1.0993079003     -2.728746543     -0.9368608179
C     -3.240356555     -1.8359597357     -0.2108680958
C     -2.2792666545     -2.1298447607     -1.2786278518


