52

 C     1.638638971     2.781124452     0.6315869398
C     2.1348222094     1.9847064396     1.6803812386
C     3.2077996393     1.1173098391     1.4083517266
C     0.2667435832     3.2044083239     0.6762212004
C     2.9538993625     -0.1345118537     2.1333909565
C     3.3380735469     -1.1918568969     1.3527655066
C     1.639342738     -0.0632280142     2.7085920352
C     0.733857638     -1.1530227617     2.5555242384
C     -0.6375074466     -0.8311990155     2.8020853967
C     -0.6823762654     2.5957733392     1.4930084999
C     -0.2427085178     1.5753257292     2.4408005259
C     1.1601417391     1.2910375532     2.5381173424
C     -1.1404944577     0.5294528845     2.7003501346
C     3.9177857214     -0.6347194589     0.1087769534
C     3.4600516663     -1.4316613696     -0.915622183
C     2.5168568263     -2.4628746244     -0.3746479846
C     -1.3993638227     -2.5570935108     1.2489268076
C     -0.0690308597     -2.6838539223     0.7286454524
C     1.0370638059     -2.2009523709     1.5619866826
C     2.3621016297     -2.2248881882     1.0022477827
C     -1.6506732779     -1.6704617411     2.342067169
C     2.8579058232     -0.886631846     -2.072061905
C     1.6511146464     -1.6690938825     -2.3427214651
C     -2.3615146475     -2.2251190545     -1.0031221717
C     -1.0364812587     -2.2006242443     -1.5628690588
C     0.0697426857     -2.6835410524     -0.729715138
C     1.400045147     -2.5562355564     -1.249943457
C     -2.5161992507     -2.463702249     0.3736701801
C     2.4988143261     0.4765788856     -2.1210933801
C     2.8680032715     1.365216546     -1.0291541495
C     3.6318339864     0.7944017877     0.0848794718
C     1.9405191111     2.4118118243     -0.7238547188
C     1.1403582106     0.5308152833     -2.7001320701
C     -1.1604805098     1.2917179864     -2.537596116
C     0.2422902702     1.5763447274     -2.4401774834
C     0.6816873441     2.5965413717     -1.4919804058
C     -0.7335488523     -1.1522115759     -2.555977728
C     0.6377278274     -0.8299386787     -2.8024370409
C     -1.6393242918     -0.0626006275     -2.708604975
C     -0.2675916234     3.2045914914     -0.6749472067
C     -3.2080867788     1.1170062918     -1.4078999506
C     -2.1353460699     1.9848001953     -1.6795928477
C     -1.6393782147     2.7809410572     -0.630484662
C     -3.3377562554     -1.1922151961     -1.3532299881
C     -2.9538678741     -0.1344609362     -2.1334411601
C     -3.4596720218     -1.4329367668     0.9150555677
C     -3.9176300626     -0.6357194441     -0.1090258208
C     -2.8576472307     -0.88819704     2.0716819156
C     -1.9411661458     2.4110181002     0.7248089456
C     -3.6320499177     0.7934729178     -0.08456173
C     -2.868369659     1.3640530548     1.029694598
C     -2.4989564143     0.475091797     2.1212875287


