52

 C     2.7314140547     0.4729495752     -2.0976904732
C     3.6965233236     -0.3973907645     -1.4973112044
C     1.5421879612     -0.0623965371     -2.565679114
C     0.3159908166     0.716991167     -2.6014893314
C     -1.0848887656     2.3396889774     -1.5028213331
C     0.2218666555     1.9481002765     -1.8958257877
C     1.1751062612     -1.4162337609     -2.2323810306
C     1.9347272531     -2.139773191     -1.2697286529
C     3.2397827635     -1.6274230229     -0.9158249445
C     1.1372124189     -2.7565742722     -0.2262732684
C     -0.2810874757     -1.4792213512     -2.2776526386
C     -2.4109854597     -2.0056917622     -1.2187216998
C     -1.0259104626     -2.3236289109     -1.4142743809
C     -0.2710344601     -2.8818335809     -0.3128859542
C     -2.2768185553     1.5907603478     -1.8383110428
C     -2.1324024261     0.2219455945     -2.2875005416
C     -0.8059820754     -0.1836309353     -2.6339606218
C     -2.997247668     -0.7890320057     -1.7324995473
C     1.4586826282     -2.3813212505     1.1426369053
C     2.6288284003     -1.7275997998     1.4567681481
C     3.6812655838     -1.6260427424     0.4890224484
C     0.9693901265     1.4494154593     2.2189517587
C     2.5029129835     -0.4514819678     2.2138378334
C     1.1820499109     0.0807040415     2.5051751775
C     -2.1377002066     -2.2626044057     1.2045903157
C     -0.8273721994     -2.6442916431     1.0171219653
C     0.2090309569     -2.0574731132     1.8036217759
C     -2.4394944745     -1.0948262022     2.0177600637
C     -1.3705705444     -0.2370712192     2.4160805826
C     -0.0014539706     -0.7934132898     2.4264357343
C     -4.0819170157     -1.3580945616     0.3004850061
C     -3.0413467736     -2.2615478957     0.073062365
C     4.3364333531     -0.3871826756     0.7404426244
C     3.526352489     0.3684930464     1.7105839344
C     1.9198600385     2.1487511611     1.3563119047
C     3.1825502801     1.6544120372     1.1172148855
C     4.351005829     0.3595000711     -0.4464947196
C     3.6262603784     1.5947829362     -0.2701082904
C     2.6726210711     1.7401793103     -1.3169495141
C     1.1264565227     2.725458739     0.2792509539
C     1.401122358     2.3438479942     -1.0681034821
C     -0.2216155922     2.7848727413     0.7332302711
C     -2.5546164526     2.5155926884     0.2887142782
C     -1.2913866645     2.898240295     -0.1577212416
C     -3.6776656364     -0.5671087559     1.4665961509
C     -3.8022171877     0.7934384706     1.1784678285
C     -2.7258598636     1.6771865642     1.4553434098
C     -1.5332390456     1.2074472294     2.1569888591
C     -0.3507340379     1.9397570555     1.9178308246
C     -4.1101904553     0.8950923093     -0.2960078731
C     -4.0630519751     -0.4179912363     -0.7987553855
C     -3.252844974     1.8632927651     -0.8115739314


