52

 C     2.4077960418     -2.5578408048     0.5013299573
C     3.2670874006     -1.5273741511     0.9921444846
C     1.178917216     -2.7839217119     1.1422977615
C     0.0000100505     -3.1054666473     0.3539720144
C     -1.2253181805     -2.3666012475     -1.6366532729
C     -0.0001008575     -2.8412362283     -1.0470254405
C     0.7328558609     -1.8959783404     2.1875109764
C     1.4792211365     -0.7222677404     2.5085578338
C     2.8012330767     -0.5800025647     1.9203681231
C     0.7187509255     0.4798486049     2.7350245778
C     -0.732504793     -1.8959729574     2.1876379312
C     -2.8009252208     -0.5799836064     1.9208399804
C     -1.478800701     -0.7222598959     2.5087971463
C     -0.7182843799     0.4798539905     2.7351414447
C     -2.4077350804     -2.5578206088     0.5017316213
C     -1.1787488812     -2.7839272748     1.1424913102
C     -3.266935297     -1.5273497586     0.9927007077
C     -2.4144669009     -2.436246859     -0.9388473831
C     1.1727929426     1.7510498505     2.1915591402
C     2.3658171364     1.8609265439     1.4765124422
C     3.2315390377     0.73281658     1.4344427745
C     0.0001597501     2.5084882422     1.7833820202
C     2.3568429396     2.4716574378     0.1472866685
C     1.2005269844     3.1113030765     -0.2918853757
C     0.0000581087     3.1792937567     0.5702464786
C     -3.2313068317     0.7328497832     1.4349868314
C     -2.3655555521     1.8609420873     1.4769087922
C     -1.1724085864     1.7510548881     2.1917503918
C     3.7745109122     0.6223142483     0.1259566214
C     3.8397130573     -0.765140133     -0.1683763968
C     3.2214654315     -1.2444144176     -1.2939051963
C     3.0754064846     1.5520139111     -0.7339909257
C     1.1896101605     1.7218180084     -2.3126171622
C     2.3944086075     1.0481250883     -1.9046662836
C     2.4329847987     -0.3851830306     -2.1505588917
C     0.7268013636     2.8581843019     -1.6026970566
C     1.2250257746     -2.366611564     -1.6368553922
C     2.4142942914     -2.4362851008     -0.9392629453
C     -0.0002284547     0.9945485987     -2.7279337885
C     -0.000231023     -0.4329640084     -2.7299598501
C     1.2314568365     -1.0965838183     -2.4336123483
C     -1.2318727541     -1.0965757396     -2.43340291
C     -1.1899774748     1.7218206786     -2.3124131694
C     -3.0755118584     1.5520506655     -0.7334746703
C     -2.3947203561     1.0481460083     -1.9042581538
C     -2.4333521455     -0.385162864     -2.1501581163
C     -2.3567933305     2.471670685     0.1476821826
C     -1.2005444848     3.1113162449     -0.2916818371
C     -0.7270349411     2.8581823099     -1.6025667195
C     -3.8397462263     -0.7651051956     -0.1677285358
C     -3.7744877455     0.622349321     0.1265957992
C     -3.2216942692     -1.2443786422     -1.2933641917


