52

 C     -3.9517711045     -1.2718885353     -0.7095688009
C     -2.0938484716     -2.6307053569     -0.1393744914
C     -3.3289657461     -2.0564226627     0.3451254251
C     1.7453590656     -2.3888484864     -1.6056508498
C     0.4058770315     -2.6498923758     -1.3554104428
C     -4.0915082268     0.0944049555     -0.2186393816
C     -3.745862918     0.1246993661     1.1297213747
C     -3.2170751394     -1.2240392696     1.4684259903
C     0.2590861196     -3.0301555643     0.0546462059
C     -0.9559322365     -2.7713679785     0.7165243272
C     -2.7895260493     2.1477765968     -0.56557951
C     -2.4637625945     2.1951840624     0.8685294955
C     -3.3980126404     1.0155397074     -1.114147476
C     -2.8115664649     1.0885018945     1.6435716238
C     -1.7589273788     0.3626531027     2.359109014
C     -0.4418037662     0.8804652097     2.4853911848
C     0.6033264122     -0.0799838502     2.6612038363
C     -0.8855724507     -1.9355381522     1.9296203835
C     -1.9936949317     -1.0548910232     2.1765145614
C     0.3859487968     -1.480386153     2.347462841
C     -1.6555683043     2.66365015     -1.2436804995
C     -0.7440514856     3.2447600072     -0.2842883718
C     1.5898057809     2.9543879969     0.1942634454
C     0.5754326304     3.1093996721     -0.7522714413
C     -0.1173442599     2.1721963005     1.848272457
C     -1.1256704596     2.768109786     0.9959510781
C     1.2424890499     2.4178061575     1.5200907979
C     -2.6230151677     0.194624701     -2.0364333359
C     -2.975238572     -1.1786679897     -1.7102649042
C     -0.8739927729     1.8768470004     -2.1288142922
C     -1.2806030859     0.5317075035     -2.4134959133
C     1.1824741771     -0.130989529     -2.448356377
C     -0.2277841817     -0.5049138405     -2.4633703569
C     -0.5979170796     -1.8365762374     -1.961120072
C     -1.8953646449     -2.1010237535     -1.4716085287
C     2.1610191822     -1.1552609882     -2.16300729
C     0.5312332318     2.2041523924     -1.8997162672
C     2.8093366072     1.5391033602     -1.4026123971
C     1.5689929026     1.2799725251     -2.126155474
C     2.7764433458     2.3459398103     -0.2379756091
C     3.6992152314     0.4400364373     -1.0732905457
C     3.4020412384     -0.8300337597     -1.457297917
C     3.3426216571     1.5696435252     0.8823639331
C     3.9662119884     0.4478457159     0.3939977194
C     2.6566850369     -0.9795897541     1.9038617898
C     1.985047275     0.2295668671     2.403942828
C     2.3079055102     1.4983930049     1.8921193722
C     3.642674015     -0.8718320602     0.901113852
C     2.5153972027     -2.6502197104     -0.3671102011
C     1.5499587782     -2.8505585013     0.6833063585
C     1.6215777282     -2.0089696585     1.811464804
C     3.518240139     -1.724612618     -0.2673639524


