52

 C     -2.8166793096     0.9245669669     2.1683615389
C     -2.6453430673     -0.4256392059     2.3101074724
C     -0.0846254006     -2.7810867542     1.4937484786
C     -1.306046073     -2.203863485     1.817882646
C     -1.3642451692     -0.9970318239     2.5921402553
C     -1.6612561463     1.7906945791     2.1791929347
C     -0.3504872155     1.2756449111     2.4514293924
C     -0.2016286882     -0.1612803186     2.7220805213
C     2.2301485536     0.0293181307     2.2649066346
C     1.0910112374     -0.807018824     2.478718557
C     1.1362750542     -2.1238381773     1.9077203099
C     -1.8480264828     2.6557073481     1.0537516065
C     0.7803856187     1.998137285     1.8401289032
C     2.0813328951     1.4395587394     1.9918701411
C     0.0950218343     -3.3562120326     0.1932620079
C     2.1362174374     -2.4282363845     0.8840450634
C     1.4422037293     -3.0184481538     -0.1995768479
C     -0.7727288392     -2.9708051338     -0.8524612122
C     -2.0681528546     -2.401117438     -0.5818753839
C     -2.3960422703     -2.1719906262     0.8140992382
C     -2.5914766244     -1.45927304     -1.5366969534
C     0.0846587441     -2.4491350824     -1.9467313051
C     -0.4242789328     -1.4369223949     -2.7468740743
C     -1.7925155666     -1.0745995893     -2.6541425762
C     3.3281592714     -1.020904215     -0.7518874618
C     2.3159045398     -1.2717047294     -1.7356523565
C     1.4479471312     -2.4019432048     -1.4879673149
C     4.0151396437     0.625276786     0.8464294784
C     3.3815443362     -0.4373155899     1.4981307974
C     3.1675493241     -1.5465037021     0.589781079
C     -3.3796470272     -0.2860987667     -1.0992762704
C     -3.7441435042     -0.1709843395     0.2519675616
C     -3.2827079417     -1.15452511     1.1847972112
C     -2.8352439671     0.8722418568     -1.8060302517
C     -3.5686610439     1.1296888512     0.9023816764
C     -2.9957251914     2.1901077478     0.2473380827
C     -2.5496093601     2.078766676     -1.1190696116
C     -1.8518940807     0.3645325657     -2.7126844837
C     -0.5516632248     0.9096523157     -2.8293988651
C     1.1336673402     2.2114824556     -1.6718936134
C     -0.220518157     2.0705449517     -2.0536757781
C     -1.2102934365     2.6163920434     -1.1765170097
C     3.8757863287     0.3246395585     -0.5623929335
C     3.2566045974     1.4091185858     -1.1955954276
C     2.14073702     1.2194191517     -2.0328999163
C     1.711967218     -0.1144920771     -2.4339525342
C     0.3819695346     -0.2077462906     -2.8948188912
C     2.8467597125     2.3841536453     -0.1323209781
C     3.1622196604     1.7922076934     1.0860425
C     -0.7990583733     2.968086878     0.1927679818
C     1.5281353486     2.7863720094     -0.3953544378
C     0.5413418379     2.812374757     0.6466644183


