52

 C     -2.1662116943     -2.5414964803     -0.9735557298
C     -0.7877445116     -2.688326594     -1.408633748
C     3.2202011306     -1.2589214282     -1.3795486581
C     1.9155610605     -1.823307569     -1.481103263
C     -2.1568393564     -2.5308524315     0.4439344247
C     -3.0258980251     -1.6642048113     1.1285705988
C     -4.023770345     -0.9930175352     0.3874848661
C     -0.7726559183     -2.6637646847     0.8728091993
C     -0.2486363894     -1.7609504459     1.839777138
C     1.1608645928     -1.6792087275     1.9042325516
C     3.2974469173     -1.7537772759     1.008544287
C     2.0142144421     -2.3309200873     0.9319644667
C     1.4195421438     -2.6134992462     -0.3397242963
C     0.0546874643     -2.9346646094     -0.2838098876
C     4.0055023811     -1.3786634592     -0.1188309998
C     -4.2908067632     0.2884444212     1.0604777385
C     -3.2429285686     0.5097983303     2.040860847
C     -2.5582923822     1.7544762882     1.7041363885
C     -1.0266558554     -0.5976935936     2.2678502553
C     -2.4503856528     -0.6539549796     2.0801068572
C     1.8283773621     -0.4764259906     2.3421844748
C     1.109348014     0.7546273883     2.2624711349
C     -0.3516735479     0.6905362716     2.2979087884
C     -1.1464335765     1.843652824     1.8353606165
C     -0.4606999582     2.627962807     0.850644909
C     -4.2188158854     1.2926436056     0.116231346
C     -3.2040979183     2.2392571814     0.4951094265
C     -1.067380836     2.7415187805     -0.4556328938
C     -2.3795428026     2.4154249624     -0.6483329717
C     -3.836019478     0.6875562575     -1.1831202448
C     -3.8096962262     -0.7521935688     -1.0266149945
C     -2.7805855896     -1.46686103     -1.6757325385
C     -1.678451491     -0.772521969     -2.3505952667
C     -1.5637065201     0.6255347129     -2.2529709836
C     -2.6887010323     1.3476678337     -1.6499868814
C     0.8766877447     -1.0760531863     -2.2141635633
C     -0.4595738775     -1.6025217987     -2.225246933
C     3.4112262895     0.0792202142     -1.8309263397
C     1.0138449496     0.3525257851     -2.3789574061
C     -0.0274587939     2.3494903999     -1.3988179335
C     -0.198408742     1.2016252472     -2.1914973036
C     2.2985519343     0.9122475049     -2.1223035235
C     4.2323417391     0.7684830052     -0.8162067006
C     1.2216149233     2.6084177467     -0.7420646421
C     3.4575184382     1.9047624412     -0.3211301451
C     2.404616904     2.1012710271     -1.2378731438
C     3.2044433932     -0.5797799612     1.9440733834
C     3.9259179463     0.462937603     1.4123261092
C     3.1711391652     1.674494777     1.0730781003
C     1.8155586008     1.8407026239     1.5357930096
C     0.956389266     2.590552151     0.6786461148
C     4.606494935     -0.0722307276     0.1928039601


