52

 C     -3.4398789437     1.2130835172     1.1486456825
C     -3.1259659168     2.0083690574     -0.00009493
C     -1.9539506973     2.7507776532     0.000109526
C     -2.4278809685     0.9117716276     2.0900632499
C     0.083612858     0.8224483328     2.3425738331
C     -1.1447026753     1.5808488661     2.0570983679
C     -1.0608742652     2.6980427632     1.158148722
C     2.5750136754     0.583978052     1.9602155958
C     1.3890648675     1.4089835627     2.0036127797
C     -1.3136684204     -1.2670784284     2.312951334
C     -2.4867134241     -0.5144173097     2.2961145865
C     0.8788052242     -2.573422294     1.1399038241
C     1.1215783193     -1.4704340256     2.0119652568
C     -0.0214411152     -0.6403061907     2.3977365987
C     2.4368884831     -0.9026814817     1.9587649976
C     -3.4389260782     1.2134234028     -1.1490756239
C     0.210076634     3.1257295593     -0.7174027251
C     -1.0604660707     2.6981487061     -1.1573864793
C     1.4292209093     2.562727903     1.1591188639
C     0.2098830108     3.1265538021     0.7194256094
C     3.6895314382     0.9249914752     1.1709515884
C     -4.0763705121     -0.0618737009     -0.7030750933
C     -3.4778599445     -1.1189860228     -1.4073239122
C     -1.1439376397     1.5817267431     -2.0570460822
C     -2.4272348873     0.9127109441     -2.0908246615
C     -2.4857815168     -0.5135766665     -2.2967770318
C     -3.4780042705     -1.1193705138     1.405924289
C     -2.8196549745     -2.1933010229     0.7121773242
C     -4.0764943316     -0.0618514331     0.7018640715
C     -2.8195920517     -2.1932723908     -0.7137800001
C     -1.5465546077     -2.4072060807     -1.3988251852
C     -1.5469371973     -2.4076691932     1.3976262492
C     -0.4608354497     -2.9132525977     0.7294646786
C     -0.4606623006     -2.9129896741     -0.730561866
C     0.8791865871     -2.572954408     -1.1405252008
C     2.4375968226     -0.9018989614     -1.9582623073
C     1.1223507526     -1.4697357462     -2.0123395284
C     1.4296460111     2.5631729669     -1.1575938663
C     1.3896112566     1.4096110447     -2.0027190966
C     0.0844531495     0.8232390692     -2.3425702693
C     -0.0205011621     -0.6393416328     -2.3978849635
C     -1.312920099     -1.2661875256     -2.3137027609
C     2.5754669017     0.5848331746     -1.9592914611
C     3.452745628     -1.4645123541     -1.1661223981
C     3.6894159643     0.9254367036     -1.1692532638
C     4.2515262286     -0.3426909101     -0.6861527148
C     3.4486145736     1.7581239491     0.0008607504
C     2.3290629452     2.5517467085     0.0007906146
C     4.2513596443     -0.3430955984     0.6869248495
C     1.7692239459     -2.7617429961     -0.0003141641
C     3.0422294079     -2.2417625727     0.0001068663
C     3.451644282     -1.4648378523     1.1657454761


