52

 C     3.1855456503     -0.9558756967     -1.6526509473
C     1.9699344609     -1.1046832079     -2.4833134624
C     -2.2394760615     -0.6614743033     -2.191882348
C     -0.8515532912     -0.859548537     -2.4733150109
C     3.1270298968     -1.925681115     -0.6642962716
C     3.1356558909     -1.5564532713     0.7259013801
C     3.4198657036     -0.2302023399     1.0637977479
C     1.9319089024     -2.7466356557     -0.9124176472
C     -0.1186702325     -3.1008053602     0.3056450035
C     1.2880114861     -3.0105961131     0.3003314772
C     -0.2292403282     -2.0912587369     -1.9629100883
C     1.1959482891     -2.2048898238     -2.0239916531
C     -0.8780868779     -2.7532711241     -0.8696227989
C     1.9972726627     -2.2529858703     1.3512878091
C     1.2303034068     -1.6312630855     2.3247277227
C     1.5014654498     -0.239675759     2.6721165758
C     2.6098233753     0.4298000722     2.112310966
C     2.4645943919     1.7952588311     1.8069018305
C     3.1080832594     2.0089060169     0.497122542
C     2.2796647702     2.8058160216     -0.2751069729
C     1.181953984     2.4233933079     1.8003942707
C     1.1015556733     3.1126190492     0.5320161152
C     3.3620573275     0.421486872     -1.3386347749
C     2.321549688     1.1597768359     -2.0778675223
C     3.6393532924     0.7679392904     0.010970021
C     1.7937450013     2.3249873521     -1.544573349
C     0.3460864817     2.4934581902     -1.5500541996
C     -0.5353063583     1.6215420393     -2.2215798256
C     -1.90308817     1.7443263198     -1.857205815
C     0.2382849579     0.4254862983     2.8290738506
C     0.0107061725     1.7388849379     2.2717565298
C     -1.2912295465     2.0128404071     1.6549408084
C     -1.3111635873     2.6687308967     0.3481255062
C     -0.0532567535     3.0241701844     -0.2420076887
C     -2.3174269764     2.3354348132     -0.5979605809
C     -0.0130940098     0.3196462177     -2.6785287477
C     1.4073698549     0.1646511336     -2.6860449014
C     -3.9076867653     0.6977232638     -1.2097256692
C     -2.8126550173     0.6613702589     -2.1099918754
C     -3.5073302843     1.0164775373     1.0591904649
C     -3.5243015701     1.6530847483     -0.1993437018
C     -0.8050187468     -0.5803940108     2.7893696852
C     -2.0876520479     -0.2448117929     2.3911973197
C     -2.3827469864     1.1057016349     1.9207605145
C     -2.2127519851     -2.2748688698     1.0058066469
C     -0.8784180273     -2.6295688777     1.4442257958
C     -0.211475097     -1.8394580516     2.390531244
C     -2.8849954696     -1.1812116623     1.5954793426
C     -3.9147236903     -0.5943084647     -0.5579986948
C     -2.9537236478     -1.4733672887     -1.2145022693
C     -2.211775379     -2.3709696246     -0.4426078693
C     -3.8109331224     -0.4192538881     0.8341635156


