52

 C     1.8285526151     0.8632120205     -2.1707326365
C     1.71465837     -2.8311170245     -0.6381029272
C     0.5171947984     -2.4560420349     -1.3045207978
C     0.5333366899     -1.2646465122     -2.1654193744
C     1.7744245073     -0.5963399458     -2.3493647783
C     -1.9126868966     -1.1511444489     -2.1350435751
C     -0.6910618663     -0.4801558308     -2.3305987302
C     -0.6512275885     1.0073516846     -2.1996505658
C     0.6490178002     1.654738338     -2.055843561
C     0.7705377757     2.8707120224     -1.2610595425
C     -0.7424437631     -2.7594757262     -0.6264945071
C     -3.1334715679     -2.2146533939     -0.4777563968
C     -1.9512069519     -2.3385705151     -1.2411332525
C     -0.7277530979     -2.8158656043     0.795987532
C     3.0212854476     1.160067913     -1.4085767337
C     1.8787395794     2.9916736932     -0.352103412
C     2.9233014204     2.0786388883     -0.3258812103
C     -0.0329403532     3.3312706922     0.8930018646
C     1.3110953596     3.0908607526     1.0048262949
C     -1.6184816976     2.7291687136     -0.7031896416
C     -0.3824561478     3.3178830919     -0.5553738659
C     -3.1477975541     -0.4420124648     -1.9669197523
C     -3.0629484379     0.9522873919     -1.5211097302
C     -1.8341485177     1.6693098283     -1.6747007385
C     4.0769578178     -0.4729199733     0.0908043622
C     3.4699111094     0.2307690807     1.2289064358
C     3.7252075371     -0.0579564192     -1.1924910732
C     2.9918984989     1.5116127351     1.0475946431
C     0.3002576566     -1.3744486257     2.3302036627
C     2.6196474614     -0.7222400485     1.9325254328
C     1.3193284928     -0.3539357049     2.393837347
C     0.8734280911     1.0482064774     2.3339789126
C     -0.5780894373     1.3428300828     2.2652797542
C     1.8025435159     1.9798646475     1.7576564648
C     -0.9853548952     2.5216861185     1.5541827913
C     2.8321062556     -2.0145244618     1.2682771543
C     3.698903358     -1.8645312211     0.1921811572
C     2.9681746357     -2.2721146812     -1.0187012651
C     2.9808395858     -1.1604785352     -1.86855906
C     0.50515249     -2.5616836851     1.4773964166
C     1.6905473192     -2.7913803104     0.8427761769
C     -2.1381758517     2.473353918     0.6636873917
C     -3.1385510722     1.5739572916     0.8383101693
C     -2.8861628608     0.4455031541     1.7436905724
C     -1.5715706272     0.2584872203     2.3044566586
C     -1.082359514     -1.0936108485     2.3265527694
C     -3.8608366241     1.0940295174     -0.3330308222
C     -3.9481864973     -1.1513698606     -1.046794351
C     -4.3006755372     -0.2260599472     -0.0119147726
C     -1.7669146361     -2.1387277382     1.5277261673
C     -3.63252358     -0.6466819679     1.178283371
C     -2.9990026151     -1.944817744     0.9429135712


