52

 C     -1.5931596592     2.2574267387     -1.5687954289
C     -2.7134892889     1.4515865429     -1.5922890423
C     0.8120779283     2.4982590299     -1.6988993158
C     -0.3277409708     1.7623938654     -2.0795032226
C     1.1416802637     -0.2693919444     -2.3232301847
C     -0.197844092     0.3143932906     -2.370807813
C     -1.3986336075     -0.536091097     -2.2374872691
C     -2.6782708001     0.0681261149     -1.963195903
C     1.2337484916     -1.6990688362     -2.1106834209
C     2.7461385019     2.5052227633     -0.4265332229
C     2.1101568271     1.9076181722     -1.5954859597
C     2.3182584447     0.528512529     -1.9141655596
C     -3.4770734682     1.5836948096     -0.3289497043
C     -4.0821760175     0.3743796042     -0.0608564191
C     -3.6750050624     -0.5910471336     -1.1526218521
C     -3.4488894402     -1.8224169406     -0.5580654317
C     -2.1786421163     -2.4573747674     -0.7913245861
C     0.0656172694     -2.4033279353     -1.6171393768
C     -1.2384909937     -1.9042705153     -1.737422172
C     -3.8320244808     -0.2751259421     1.1639816898
C     -3.6703988801     -1.6909802984     0.8848835935
C     -2.6968615781     0.1738562326     1.9494986513
C     -2.0636173812     1.4287703093     1.6919305565
C     -2.5846345426     2.2058798422     0.5864931023
C     -1.6138162572     2.8975385963     -0.2378475883
C     -0.4553131375     3.3368271546     0.3104277993
C     -1.8507064873     -0.993330805     2.1643895819
C     -0.4403113368     -0.9252255882     2.2575318831
C     0.1927893602     0.3892878973     2.3305329452
C     -0.629788498     1.5704074427     2.0438581223
C     0.0367678757     2.7322404018     1.5586750122
C     2.383989488     -0.7256189091     1.9264472778
C     1.6454163207     0.4705362611     2.1737606601
C     -2.4867112108     -2.1144281165     1.4784635627
C     0.3369567331     -2.0935527635     1.7775331046
C     1.7388199378     -2.0055709164     1.7532950285
C     0.6903312756     3.4530449304     -0.5595332345
C     1.8506251027     3.4324646731     0.1882569227
C     2.2562911948     1.6991540662     1.7073583904
C     1.4654369729     2.8273926064     1.4857379248
C     3.5728027909     -0.718026327     1.0552051439
C     3.7009031715     0.3984330822     0.1453310264
C     3.2214208985     1.616343104     0.5610668416
C     3.6631706805     -1.9122567683     0.3529648253
C     -1.6568155908     -2.8033780817     0.5093819774
C     -0.2922817458     -2.9371495682     0.7414254624
C     2.5257655305     -2.7289668177     0.7424499105
C     1.8759873501     -3.1612822852     -0.4060051302
C     0.4790577464     -3.1558431125     -0.4460743783
C     3.3933919728     -0.1153242355     -1.1844138174
C     3.4463074868     -1.5431446639     -1.0504386296
C     2.3787370273     -2.3015856918     -1.5291023331


