52

 C     3.1088131196     -1.9660722198     -0.4665021102
C     2.9665091021     -0.85915084     -1.4012361901
C     3.2795059767     0.4099252816     -0.9781770894
C     2.0925165855     -2.9456605566     -0.7365331445
C     1.641090222     3.4628456368     -0.283916952
C     2.6874373186     2.5961796521     -0.5323905156
C     2.5592183853     1.5554598624     -1.5159019366
C     1.293611698     1.3469240674     -2.1868950371
C     0.2915774448     2.3694978756     -2.0149775962
C     0.5210078061     3.4452566745     -1.0964935442
C     1.7377880147     -1.0931578158     -2.157129612
C     -0.6362934756     -0.3541140699     -2.4244754516
C     0.8249079822     -0.0407051363     -2.4228352982
C     -2.8981701035     0.4028674896     -1.5258577416
C     -1.618463227     0.7202276401     -2.1427113704
C     -1.1225034502     2.027920196     -1.9203655812
C     -0.0968191877     -2.7071884463     -1.7975530251
C     1.2755401837     -2.429393312     -1.7841268151
C     -1.0437962675     -1.6882895762     -2.1771122089
C     -0.6607295563     -3.4106874256     -0.6744373681
C     2.9987883207     1.920401803     0.7284259325
C     3.4767064308     0.6506053902     0.4726348308
C     3.1096331742     -0.3822566656     1.3792156706
C     1.8862917242     2.1468039048     1.6526460204
C     -2.3448929433     1.957536874     1.3552985945
C     -0.999384839     2.119561015     1.7956057611
C     -0.2679493955     0.9637170777     2.3120358729
C     1.2011165698     0.9857562908     2.2455481301
C     1.9262431575     -0.2288854831     2.2134206628
C     1.1403745158     3.1970619435     1.1142882418
C     -0.6662484732     3.519038047     -0.2315864611
C     -0.2724819317     3.1781078011     1.1043015382
C     3.1470232867     -1.7154989528     0.9163360173
C     2.0454698578     -2.4677255844     1.5251633419
C     0.0639352294     -3.4641913687     0.5595548816
C     1.450947585     -3.2863265378     0.522683895
C     -3.0630902756     0.7666069872     1.6541762917
C     -2.3510294557     -0.4084652597     2.0756634652
C     -0.9648473605     -0.3465061483     2.3709423227
C     -0.1867084388     -1.6044468003     2.2087802282
C     1.2503667911     -1.5324007164     2.2246990591
C     -0.7517977198     -2.7050540348     1.4997719749
C     -1.717169367     2.8497217652     -0.8518768931
C     -2.7058295371     2.3137801743     -0.0257095789
C     -3.9246603645     0.4342672403     0.5566286649
C     -3.5013821383     1.2631476584     -0.5421637093
C     -2.2959149441     -1.9766180638     -1.4433087202
C     -3.6988103083     -0.9169820959     0.2332625621
C     -3.1936450474     -0.9753572624     -1.1235683829
C     -2.8994250391     -1.5275168055     1.2750551518
C     -2.0939293906     -2.5889495929     0.9214808463
C     -2.0004282451     -2.9816075779     -0.4597876249


