52

 C     -0.900697727     1.6811597413     -2.0750351676
C     -1.414510954     0.3761898753     -2.3145964561
C     -2.7998018687     0.1620475541     -1.8921559642
C     -3.1561619973     -1.137547348     -1.2555862252
C     -2.2068673928     -2.1212385733     -1.2149725146
C     0.4969568872     1.9134816608     -1.9921922529
C     2.8073023041     1.2049053435     -1.7202850679
C     1.4766424629     0.903481185     -2.2054769994
C     0.9949161025     -0.4840173779     -2.293238276
C     -0.4462210342     -0.7259780468     -2.3703350374
C     -0.9392729132     -2.0351801992     -1.9555730349
C     3.003735728     2.2806482716     -0.7460111845
C     -3.9390371988     -0.8956528852     -0.0857475035
C     -0.6808834921     -3.4291207095     -0.1342904938
C     -1.9011348426     -2.7720854292     0.0537523149
C     -2.1540879772     -1.99586566     1.251203866
C     -3.2795018291     -1.1368112797     1.1786049453
C     0.3307053504     -3.3256494856     0.809101813
C     1.8839399882     -1.5332020946     -1.7462136168
C     1.2954751217     -2.7406724139     -1.2085898539
C     -0.0888937128     -3.0006256323     -1.4226422987
C     -4.2836971774     0.5058104893     -0.1331812204
C     -3.9671407938     1.1310910566     1.0587899195
C     -3.2487890934     0.1414736556     1.8726016652
C     0.2500738951     -2.2960800273     1.832045864
C     -0.9579840814     -1.5536466237     1.9995597254
C     -1.9092151596     2.0426050718     1.5904083057
C     -3.0588629289     2.2248804419     0.784503508
C     -0.6468101311     2.4920274578     1.1545458865
C     0.5648967526     1.8910460365     1.7412662145
C     3.0085417072     1.6861670278     1.4582033969
C     1.7961360444     2.3897979081     1.2625150629
C     -0.8181959943     -0.1321521184     2.3191341378
C     -2.0003196827     0.6853859745     2.2075147786
C     1.5423377098     -1.6870641774     1.9571591361
C     1.6996947987     -0.2932945763     2.2303227696
C     0.4855012231     0.5196677551     2.2791517854
C     2.9600596027     0.3112678986     1.8577356799
C     -2.8660780439     2.3049034086     -0.6565043658
C     -3.5435067993     1.1539157305     -1.2279072271
C     -1.5883796669     2.566975987     -1.1105449435
C     0.6928775636     2.8442143112     -0.8702895599
C     -0.5628686268     2.961001499     -0.1899272025
C     1.8548949917     2.8770751053     -0.1575667959
C     2.401479332     -2.2971343192     0.9263211636
C     3.3591829656     -1.5457954739     0.2726374545
C     3.83010179     -0.36033764     0.9133156748
C     1.5942324334     -3.143304039     0.132909844
C     3.6609882063     0.1593674777     -1.2681072608
C     3.1118990872     -1.1581530745     -1.1283663358
C     3.8853956899     1.8278982354     0.2846610235
C     4.370943381     0.5621530455     -0.0525890762


