52

 C     -3.5049823179     1.7135777082     0.4273038951
C     -4.1268565642     0.5810192309     -0.094718142
C     -3.5257143287     0.3609747833     -1.4389441633
C     -4.0618086848     -0.6473816195     0.5974417388
C     -3.4381346532     -1.6347417934     -0.324199131
C     -1.3220187824     -2.7974832538     -0.2631368244
C     -2.521904235     -2.4492696711     0.3818271627
C     -1.0351929317     -0.1527186068     -2.6922280312
C     -1.7580226012     -1.2567881229     -2.1467247836
C     -3.0615520838     -0.9831633641     -1.546812315
C     -0.9737834717     -2.3107021697     -1.5716820941
C     -3.3235429146     -0.7350121903     1.7821531249
C     -2.555878694     0.3788549468     2.2775163926
C     -2.6686764828     1.6212423968     1.6005184981
C     -2.4396698104     -1.9173448511     1.7251872789
C     0.9378384899     2.5259908704     1.2294517924
C     -1.4591302908     2.3480203332     1.3259630165
C     -0.222544488     1.9697057809     1.8633399918
C     -1.2366185941     -0.1290679063     2.6166052745
C     2.4511578835     -1.9230181502     1.3089116515
C     1.2929430972     -1.4474984047     2.0066490504
C     1.2427899302     -0.051098633     2.43877476
C     -0.0693595514     0.6347002491     2.4990542957
C     2.405798691     0.7589876492     2.1842939671
C     2.2056755352     2.0376600399     1.5470191075
C     -1.1957571686     -1.5637490484     2.2391066188
C     -0.0917879646     -2.8651264851     0.5009869042
C     0.0231117428     -2.1149351282     1.7015873996
C     -1.4993000425     2.7797428446     -0.1002547493
C     -2.7059625264     2.3612280161     -0.63520914
C     0.9452542483     2.8292730869     -0.1890655583
C     -0.2799960514     2.7329694844     -0.8927809487
C     -0.2727321359     1.960078906     -2.0817104018
C     -1.4646608239     1.1842003179     -2.4153617175
C     -2.688914381     1.4607728902     -1.7769598908
C     3.0694289274     2.1407306086     0.3795430633
C     2.2121647654     2.4062531198     -0.7442847021
C     3.6303918634     -1.0952080926     1.1701347205
C     3.5963928318     0.2166100494     1.6103106263
C     3.9446154082     1.06431471     0.4045311382
C     4.1092247227     0.2143472807     -0.7101015174
C     3.0968794521     0.3077257769     -1.7523623298
C     2.1792562748     1.4336705407     -1.8128732449
C     0.8999218526     1.1919533346     -2.4199278131
C     4.1367641116     -1.1437565182     -0.2170579704
C     0.9983847435     -2.8575526299     -0.4348349093
C     3.185859559     -1.8711289026     -0.9242704241
C     2.2616714201     -2.5206074447     0.0036348774
C     0.4297274617     -0.1351857834     -2.7090447937
C     2.565585716     -1.0281008461     -1.9375410653
C     1.2089904763     -1.2631781498     -2.3197357621
C     0.4746533704     -2.3207671896     -1.6699839236


