52

 C     -3.3967703813     1.984495322     0.1519864786
C     -2.2561911545     2.5698824878     0.8694834211
C     1.8557166169     2.0813843416     1.7787977376
C     0.4612800376     2.4003695459     1.5930570411
C     -3.0059128944     1.8053414978     -1.211610901
C     -3.182748714     0.411131493     -1.5346610128
C     -2.1997226466     -0.2295779521     -2.3094552269
C     -1.7176536111     2.3976534503     -1.3738763413
C     0.6263158425     2.1341814161     -1.9549855354
C     -0.7314484696     1.7764248465     -2.2023327266
C     -1.0001201547     0.4628861386     -2.7106291855
C     2.3739138397     2.5856044218     -0.5560570552
C     1.0034862367     2.887471056     -0.8044619073
C     0.0772803345     2.9794784268     0.3018751777
C     -1.2849185055     2.9599382053     -0.0708185793
C     2.8133902818     2.2702619311     0.703008508
C     -3.2159531226     -1.5247818818     -0.0041142077
C     -2.318065578     -2.260834138     -0.9115488843
C     -3.6940057671     -0.2590373407     -0.3327254609
C     -1.8303182649     -1.6163483642     -2.0440173866
C     -0.4443523568     -1.7974143629     -2.4526184112
C     -1.3753231726     -3.0238187802     -0.0867932357
C     -0.0652342213     -3.2106519737     -0.4775199073
C     0.3917868952     -2.6917563501     -1.7780337531
C     1.7410718669     1.2249000474     -2.3002905662
C     1.4537020982     -0.1597264259     -2.6141771894
C     0.0823954435     -0.5057914621     -2.8352379916
C     -2.7501950167     -1.7748600488     1.3413035959
C     -1.6241764262     -2.6197228424     1.276736922
C     -2.395228003     -0.6683972008     2.2035957389
C     -2.8450885349     0.5970001666     1.9019693393
C     -3.7093994976     0.7604476618     0.7247396081
C     -1.0079688558     -0.8672588686     2.6357636713
C     -0.10431843     0.2211712399     2.7554854147
C     1.2832530398     -0.1258201364     2.7088181676
C     1.0461011661     -3.0414519681     0.4739103233
C     0.8034627934     -2.3666680036     1.7321385626
C     -0.5570656148     -2.1301038728     2.1100672724
C     1.7574153532     -1.4044443944     2.1678114952
C     -0.5238412701     1.5621432191     2.2861906217
C     -1.9010210901     1.7392578355     1.961058386
C     2.2288740569     0.8676890873     2.3944792
C     3.120882628     -1.6739871578     0.1268047897
C     2.9847283902     -1.1504324377     1.4325206878
C     3.323133665     0.2305476133     1.6295149561
C     2.1649101613     -2.6572899988     -0.2877011333
C     2.3226106266     -1.1569379629     -2.0286776617
C     1.7729070543     -2.4086049261     -1.6656671712
C     3.5962672982     0.5766630742     -0.7793915838
C     2.8450017008     1.5631466931     -1.5151357624
C     3.3297299543     -0.7808493077     -1.006703058
C     3.6774143724     1.0570969397     0.588174719


