52

 C     2.4733371834     -0.9368635247     2.0630036174
C     3.6531291428     -0.4488642951     1.4008003448
C     1.3744055606     -0.0692888885     2.3732857175
C     0.8576403629     -2.6445465142     1.2636507204
C     2.1526361543     -2.2037937448     1.4662391254
C     -1.6490392426     -2.835307674     -0.021054121
C     -1.5963100888     -2.2778965001     1.3266844504
C     -0.2543842388     -1.9679025144     1.8620902242
C     0.0336152117     -0.6754006935     2.4646699484
C     -1.0815174141     0.2014261403     2.6470698713
C     4.0885892877     0.9136409221     -0.4412446144
C     3.7399509934     0.8784761816     1.0112517235
C     1.4835639649     1.3461631304     1.9834456826
C     2.6387510966     1.7576935499     1.2483648299
C     2.4349130722     2.4670492868     -0.0425356241
C     3.1736947398     1.7325116243     -1.0624287571
C     1.2176980306     2.9379471969     -0.3713376318
C     0.1742198363     3.0318849274     0.6432118606
C     -0.9817030503     1.627177504     2.2399381307
C     0.2466105919     2.1335605034     1.7785158677
C     0.5763893353     2.5281039706     -1.6483053958
C     1.0378585716     1.28744434     -2.2732974658
C     2.384071404     0.9471595591     -2.0332004264
C     2.8299728574     -0.4283451992     -1.8886811362
C     1.8358548283     -1.4533806193     -1.8703648733
C     1.9841497532     -2.4733098627     -0.8340396359
C     -0.5510989988     -2.1050254783     -2.0136591793
C     -1.9010384664     -1.8104863824     -2.0883172363
C     -1.4038445829     0.5793860549     -2.4198116088
C     0.040058903     0.2448240302     -2.529258288
C     0.470910568     -1.1306063794     -2.3172935237
C     -2.3748200194     -0.4736710476     -2.2689135043
C     -0.7658091076     2.7415991458     -1.4560602082
C     -1.7878534504     1.8321803721     -1.8329074606
C     -3.510890796     -0.3144926962     -1.4107796615
C     -1.028186879     3.1718963317     -0.0523159443
C     3.9523941335     -0.4319469033     -0.9537383822
C     2.9241720767     -2.3022936682     0.1952548405
C     3.8639873771     -1.2730132513     0.1674439113
C     -0.4057643996     -2.9261275312     -0.797387391
C     0.7794262131     -2.97984416     -0.1692794711
C     -3.6296861458     -1.5157195032     -0.5499446461
C     -2.6265327659     -2.4165171017     -0.9333405854
C     -3.748337554     -1.1104466847     0.7790866085
C     -2.8218646447     1.9026970887     -0.7965183742
C     -3.9114247576     0.3492971755     0.7850304076
C     -3.6930117843     0.8282726781     -0.5873996128
C     -3.1330756382     0.8585259382     1.80769958
C     -2.2491989615     1.97517197     1.6306210667
C     -2.2409711116     2.6179646466     0.36739031
C     -2.686274482     -1.4487111587     1.7170060793
C     -2.3893726701     -0.2382522919     2.4416398409


