52

 C     -1.2148870077     3.3976623729     -0.1835295045
C     -2.3558543839     2.7325712123     0.1845583461
C     -3.8542938578     1.0454129292     -0.1897030955
C     -3.0573493166     2.0125206819     -0.8132738164
C     0.8560047931     3.3229997605     -1.1753402169
C     -0.4869116401     3.0024927924     -1.4247278699
C     -3.5660210645     -0.1983375176     -0.794746532
C     -3.3837595117     -1.2145109871     0.1942524027
C     -2.724858086     -2.345589764     -0.193814838
C     -2.5452804316     -0.0512947644     -1.8183329317
C     -0.1822140932     -0.7137972539     -2.2844255704
C     -1.5755145917     -1.0898524731     -2.0319790323
C     -1.8767532905     -2.3520345536     -1.4088516841
C     2.1921656608     -1.3266864688     -1.8268445219
C     0.8502797758     -1.7379663242     -2.0413600315
C     -0.8506975034     1.7383304318     -2.0409346492
C     -2.1925413667     1.3269917835     -1.8261382069
C     1.8765099948     2.3523142229     -1.4090531364
C     1.5751805954     1.0902995038     -2.0323385888
C     0.1817441153     0.7142554559     -2.2844145536
C     2.5449719522     0.0516555804     -1.8190257371
C     -1.9303512577     -3.005031394     0.7946177668
C     -0.9918176475     -3.8701954667     0.1899367709
C     0.4866417076     -3.0022098605     -1.4252782629
C     -0.8562759146     -3.3227308571     -1.1755781989
C     3.0571857171     -2.0123391186     -0.8143551254
C     -1.2994031333     -2.1895033568     1.8198059586
C     -1.7251497652     -0.8338253081     2.0325580664
C     -2.9710744482     -0.4737138248     1.4092281859
C     -3.3107288202     0.893206005     1.174308408
C     -1.0922796147     1.5974046743     2.0419025672
C     -2.3705593917     1.904307281     1.4253598996
C     -0.7101420966     0.1933859701     2.284777474
C     -0.07231314     2.5615929961     1.8281915558
C     -0.2421569733     3.6515456504     0.8135353082
C     0.2422426947     -3.6515774674     0.8128309351
C     0.0726855376     -2.5619008088     1.8277329097
C     0.7106712876     -0.1937912604     2.2845212348
C     0.9918153472     3.8700867825     0.1902932331
C     1.9304378584     3.0048835627     0.7945348963
C     2.3708423623     -1.9046577938     1.4244308072
C     1.0927350701     -1.5978334313     2.0413699527
C     3.3109009773     -0.893414037     1.1732279784
C     2.9713350957     0.4734080127     1.4084150441
C     1.7255429007     0.8334407659     2.0321240936
C     1.2997251495     2.1891552412     1.8197440573
C     2.3559094674     -2.7327117323     0.1836083394
C     1.2149405902     -3.3977076446     -0.1844276886
C     3.8542696882     -1.0454216194     -0.190875746
C     2.724787384     2.3456468521     -0.1942475703
C     3.3838057226     1.214499171     0.1934297579
C     3.5658769031     0.1985453959     -0.7957388407


