52

 C     1.9982201992     2.4730730236     1.037025699
C     2.7980167676     1.5056918261     1.6289753256
C     -0.2017139792     3.161097768     0.3143028635
C     0.5980540877     2.5304110708     1.3346839449
C     -1.5078953623     1.3590866591     2.1009602408
C     -0.0322413088     1.4704687621     2.1112952455
C     0.7827290693     0.2946173969     2.4357908875
C     2.2006136966     0.3773538153     2.2720117891
C     -2.0784608833     0.0568081691     2.3389820072
C     -1.5731590292     3.1043464908     0.3473429693
C     -2.2867014103     2.2795531043     1.2928613095
C     3.8401450639     1.0396285894     0.6465100515
C     3.9437673885     -0.3224960395     0.7690797311
C     2.9640403315     -0.7619517521     1.8274843326
C     -1.2202670694     -1.1350240224     2.3308146141
C     0.1778731869     -1.0457691156     2.3303149274
C     3.7858142769     -1.1840619828     -0.3506836675
C     2.9099602102     -2.2193323318     0.0775133842
C     0.8011420773     -3.1529196218     -0.5795682715
C     2.0069321112     -2.5771559138     -0.9510237726
C     0.9455530506     -2.1463738921     1.6776875409
C     2.3520417397     -1.9322699866     1.4115985374
C     0.2722485967     -3.0298450993     0.8033417046
C     3.1740144869     -0.6389081317     -1.5647179258
C     3.0095765648     0.7415752037     -1.6917183838
C     3.4897711028     1.6132552184     -0.6081360695
C     2.0393872994     -1.4949749799     -1.9257336937
C     0.7985535776     -0.9830718606     -2.4278390233
C     -0.3603293538     -1.8112578966     -2.2435686808
C     -0.2988272434     -2.9713155315     -1.4358967795
C     1.4960412708     2.4944000734     -1.3885841882
C     2.4744852631     2.5663660169     -0.3593836392
C     0.2228471953     2.8987802962     -1.0910045218
C     0.5968412821     0.4694957625     -2.4895908829
C     1.7157774309     1.2754776503     -2.1497923287
C     -0.8987211443     2.3212424893     -1.7726750434
C     -0.7780778919     1.0253987849     -2.3371169395
C     -1.7290242707     -1.2634497488     -2.1130081114
C     -1.9635992502     0.1243238683     -2.1710088893
C     -3.1615458243     0.6086368861     -1.4585541349
C     -3.1527170739     1.933433284     -0.8588989767
C     -2.053427111     2.7186272841     -0.9937729436
C     -2.4623969307     -2.1181747373     -1.1815980043
C     -3.4008835896     -1.5464240725     -0.2776374157
C     -3.8331624073     -0.2265883223     -0.532080741
C     -1.5306041215     -3.0424484671     -0.6650376917
C     -3.1245489581     -1.6400388964     1.1334124453
C     -1.9076173243     -2.1794477847     1.5833224052
C     -1.164403827     -3.0195937807     0.7075752786
C     -3.4536275931     1.8062029196     0.5895340442
C     -3.8990339949     0.5121888128     0.7728042057
C     -3.3214903753     -0.318697258     1.7434152356


