52

 C     -1.998935477     2.7670001789     -0.1772939713
C     -2.7026478064     2.0974682933     0.817243643
C     -3.6228916807     1.0522401319     0.4092013495
C     -0.6067524344     3.144523172     0.0364149223
C     0.088115896     2.7439787134     1.198639813
C     1.5392500999     2.746848428     1.1237951552
C     -3.6095916797     0.053609579     1.4053913485
C     -2.5547417867     0.3316749528     2.3355580885
C     1.6387288056     0.7574239906     2.554101403
C     0.2202777098     0.6384990053     2.6265694876
C     -0.5751359566     1.76980392     2.1134060026
C     -1.9710217146     1.6011869974     1.9931557541
C     2.2831115484     1.8729827972     1.9353116583
C     -2.3486815967     -1.872086601     1.5849458485
C     -3.3851032308     -1.2346308856     0.8226506557
C     -1.5343590652     -2.7537587052     0.9317588622
C     -0.3455593496     -0.7179386753     2.6100155442
C     -1.7494616884     -0.8343604445     2.4666591607
C     -0.1340569152     -2.889648918     1.3449798765
C     0.4789072748     -1.8669032934     2.1605147658
C     -1.592066708     -2.8662545422     -0.5212368433
C     -2.2199611363     -1.8146400654     -1.2794284864
C     -3.2263723227     -1.0684452252     -0.5872284244
C     -3.426282856     0.375824776     -0.8552860385
C     -2.6325173236     0.9966787144     -1.8128768933
C     -0.3168587362     -3.3525584869     -0.9083729792
C     0.4058119742     -2.8242047199     -1.9727976155
C     -0.0632438834     -1.6376318678     -2.6032045357
C     -1.3871005338     -1.1393809255     -2.3284935712
C     -1.5865374936     0.2494125003     -2.5462881683
C     2.4348928638     -0.4129942178     2.2778053914
C     1.8725175965     -1.6650568537     1.9527465952
C     0.5700837449     -3.4366078506     0.2614624853
C     -2.1027812184     2.2858457724     -1.5232447644
C     -0.8068434654     2.3863607669     -2.134539372
C     1.4477799038     2.705970863     -1.3168449497
C     0.0813819688     3.0352442455     -1.2663701194
C     1.0762391654     -0.733852939     -2.6748933825
C     0.8885741906     0.66480432     -2.6933398959
C     -0.4702393401     1.1379221631     -2.7592515793
C     1.8744437565     1.4777332831     -2.0255549215
C     2.2135167722     2.8424874063     -0.1631059294
C     3.2444517129     1.8153078598     -0.1930637621
C     2.1937882026     -1.325613658     -1.9380058364
C     3.3439494766     -1.0184716995     0.2230530646
C     3.0660147095     -0.5206487114     -1.1056138989
C     2.9813844268     0.9135480462     -1.2943737077
C     2.5607114991     -2.1416177105     0.7433440979
C     1.8766633791     -2.976715704     -0.1236605768
C     1.7761110496     -2.5965562902     -1.5144363376
C     3.3762988048     1.3114536487     1.0944844132
C     3.4367088672     -0.0752555345     1.2955971739


