52

 C     -3.4325048924     0.5462645699     -1.3345092622
C     -3.6686398544     1.2842176899     -0.1702462643
C     -2.8213888553     2.3652113055     0.1229804098
C     -1.7412023185     2.7118971805     -0.7095332285
C     -1.4275860178     1.9171561723     -1.8826001552
C     -2.3235801331     0.8179136522     -2.1747848945
C     0.6425661558     3.0661760134     -0.2059900849
C     -0.6422843662     3.0662076348     0.2067151732
C     0.9731539358     2.5657483072     -1.5552717476
C     0.4436713224     0.5448072645     -2.8194374332
C     -0.0208812471     1.782035972     -2.2687338119
C     2.3061461953     2.181493567     -1.5029258396
C     -2.7362102645     0.8791255701     1.9505407804
C     -3.5759017483     0.3330346862     0.9471421131
C     -1.7627316346     0.0422306161     2.543573615
C     -0.9729046626     2.5654747528     1.5558757988
C     -2.3059457847     2.1813568024     1.503431091
C     -0.4436071835     0.5441729321     2.8195751338
C     0.0210480909     1.7814899781     2.2691548648
C     -1.6768369188     -1.3717170716     2.1948603914
C     -2.4112075448     -1.8854199866     1.0673445988
C     -3.3748233024     -1.0000355056     0.4377348022
C     -1.7185954423     -2.8127717254     0.2050189632
C     -0.3221181069     -1.7878810813     2.4519024252
C     0.2972822754     -2.7764143199     1.6707186987
C     -0.4351739858     -3.3094716878     0.5729623634
C     1.7719071605     -0.485407972     2.5769229716
C     0.437665831     -0.609028223     2.8739347828
C     1.7414673336     2.7115531742     0.7101722018
C     1.4277662171     1.9165819474     1.8830756685
C     2.3236667209     0.8171759163     2.1749616973
C     -1.6758372299     -2.5732385199     -1.234261648
C     -2.4347924785     -1.5334340604     -1.7787698569
C     -3.4013010449     -0.8910152586     -0.9799995856
C     -0.2975483554     -2.7759600631     -1.6713694836
C     -1.771959452     -0.484639504     -2.5770412996
C     -0.4377254023     -0.6082900797     -2.874071668
C     0.3219321608     -1.7873127963     -2.4523255964
C     0.4348641927     -3.3093673537     -0.5737485931
C     1.7183147952     -2.8128688588     -0.2056801779
C     3.3747281453     -1.0002440198     -0.4379939693
C     2.4110262006     -1.8853972603     -1.0677875569
C     1.6767074226     -1.3713680235     -2.1951953766
C     3.4012013924     -0.8916024006     0.9797629615
C     2.434625691     -1.534082429     1.7784066273
C     1.6755973132     -2.5737245881     1.2336802424
C     2.821632847     2.3649959344     -0.122412178
C     3.6687244497     1.2838242158     0.1705634657
C     3.4325610562     0.5455856853     1.3346393345
C     1.7627441374     0.0426572656     -2.5435550391
C     3.5759536188     0.332943702     -0.9470589262
C     2.7363035652     0.8793302809     -1.9503374991


