52

 C     3.1842625135     -1.2294265921     1.2815461986
C     2.5880614551     -2.4315839689     0.8010949357
C     1.3480932255     -2.8124764115     1.3463476533
C     0.58444944     -1.8818268665     2.1972793265
C     1.0583734072     -0.5784493927     2.4246857517
C     2.4399431273     -0.2948160476     2.0137628574
C     0.3991937128     -3.4205075015     0.4972109457
C     -0.931213011     -3.1352275359     0.9702846837
C     -2.8922029179     -2.1382233967     0.0376896041
C     -1.7775276686     -2.9126151299     -0.1511183467
C     0.5591983633     1.828815734     2.1898964631
C     0.0721404693     0.5344405707     2.4817075976
C     -1.3852041475     0.2529875273     2.3319777753
C     -1.8442217039     -1.1107382511     2.0522465253
C     -0.8479027484     -2.139275425     1.9718069047
C     -3.0304555936     -1.3211864876     1.2345350464
C     0.4196827598     -3.1362941203     -0.9090800095
C     1.5698034141     -2.5057067945     -1.446505377
C     2.7185095708     -2.3895652183     -0.6335060504
C     -0.8847131098     -2.701447186     -1.3060738636
C     -1.0360696482     -1.4992826248     -2.0820287905
C     -2.2875226149     -0.8289768132     -1.9997654188
C     -4.1281750069     -0.2747326579     -0.62789868
C     -3.3359951682     -1.3141983619     -1.0736825635
C     2.630013752     -0.4787249581     -1.9979798502
C     3.4280596823     -1.1646894696     -1.0027828333
C     2.5370436203     0.8982779033     -1.9410472807
C     0.1534543295     -0.6926343393     -2.4253593627
C     1.4301545219     -1.2781844052     -2.234253568
C     1.2541612775     1.5436188079     -2.2510192557
C     0.0450628041     0.784844325     -2.4287662259
C     3.1673747435     1.6405501358     -0.8359523394
C     3.5911809425     0.8975830152     0.3019083591
C     3.8136411607     -0.4985923358     0.1505390256
C     2.3754105611     2.7918200286     -0.6252151824
C     2.8200944912     1.0445214099     1.5344704961
C     1.9244970051     2.0883814537     1.6858570059
C     1.8443296039     3.0749846855     0.6389328122
C     -2.3971442019     0.5946816961     -2.0336779853
C     -1.2231338353     1.4196753267     -2.0706266852
C     1.2272987692     2.7697757593     -1.5532004555
C     0.4433669609     3.4160332007     0.4773003782
C     -3.5532787838     0.9396945107     -1.1901178338
C     -3.3185414903     1.8277219507     -0.1543132603
C     -2.1533320637     2.6135160389     -0.1064298789
C     -1.2019920372     2.6064072606     -1.1930418878
C     0.0486551875     3.2099019984     -0.8960624134
C     -3.4341025888     1.0558874924     1.1306432191
C     -3.869748535     -0.2201448753     0.8325374484
C     -0.2939634802     2.7826811251     1.497168277
C     -1.6177171205     2.4627660822     1.2301651665
C     -2.2313533963     1.3099491289     1.857900941


