52

 C     -3.8778443297     -0.7183326094     0.3406976361
C     -3.8686553405     0.6569319924     0.5115473771
C     -2.9910997606     0.9658015267     1.6630356449
C     1.1623515719     0.7646608746     2.4763057898
C     -0.2413458929     0.8878299291     2.412423646
C     -3.4259758684     1.50198116     -0.5224615447
C     -2.5513395808     2.5375955697     0.0629204172
C     -0.321484751     3.3095210817     -0.3539908439
C     -1.5573147816     2.8792714677     -0.8601111909
C     -0.8001450904     2.12389189     1.7795736525
C     -2.1825397819     2.1056309958     1.3657408278
C     0.0527333208     2.9567295681     1.0172266151
C     -2.7559047577     0.9891590619     -1.655744428
C     -2.6428296116     -0.4511578177     -1.8206376445
C     -3.3168931263     -1.3145421056     -0.8444771045
C     -1.4141478591     -0.9203436818     -2.3821127284
C     -1.604662785     1.8770085995     -1.9231690866
C     0.8504199276     2.0738937246     -2.1291687742
C     -0.3857814128     1.3951933919     -2.4607924568
C     -0.3077118292     -0.0209796246     -2.7155489004
C     0.8301176389     3.0825272181     -1.1375425038
C     -0.8292945289     -2.1817122514     -2.0037296141
C     -1.3952638562     -2.8926725614     -0.910402749
C     -2.6277495247     -2.4986439217     -0.4021030095
C     0.5918073945     -2.0677945117     -2.1149155954
C     -0.4931801659     -3.1889075669     0.2330054411
C     0.8605015731     -3.1424786798     0.0843472471
C     1.4506195033     -2.7110999413     -1.2112039013
C     2.7163973444     -2.1807036455     -0.9343550515
C     2.1095420766     1.3418325365     -1.9632247908
C     2.1542720769     -0.0609311507     -2.1708120065
C     0.9256127083     -0.7111161118     -2.5737657884
C     3.1167304738     -0.8447160874     -1.3809990466
C     -2.4798688408     -2.3986767759     1.0661385167
C     -3.1767259464     -1.3055134956     1.5050104283
C     -1.1105616125     -2.6005870965     1.4063101741
C     -2.4582545604     -0.2375570223     2.1805620939
C     -1.0370654822     -0.3438008449     2.4424805403
C     -0.3682425093     -1.6303789575     2.1681549913
C     1.0878991791     -1.6977184447     2.086994955
C     1.8335164218     -0.5156268758     2.4305870047
C     1.6967816895     -2.5984724301     1.1318777311
C     2.926170905     -2.2351336862     0.4907546421
C     3.6602749469     -1.0950394631     0.863510586
C     3.1331076058     -0.2841736193     1.8609174812
C     2.8585556158     1.9461836185     -0.8514035767
C     3.5943437637     1.1185377219     0.0316263006
C     3.8523190763     -0.2447701908     -0.338261279
C     1.9932833984     2.9076525701     -0.2815994587
C     3.2072707762     1.112164895     1.415195551
C     2.0542392073     1.7820511801     1.8675834276
C     1.5029853912     2.7775405971     1.0480143555


