52

 C     0.4617141301     2.99027856     -0.732739652
C     1.5703426686     2.5106311517     -1.4168878347
C     2.7972279849     2.3202491142     -0.6957919317
C     -0.8623120968     2.6307333943     -1.1620239527
C     -1.0668272918     1.6043525803     -2.1420097593
C     -2.3622431365     0.9715994344     -2.1426950768
C     3.431286813     1.0826254664     -1.1500850403
C     3.8573903892     0.3341843331     0.0007491063
C     3.6468081011     -1.0831569538     0.0006939159
C     2.5688570541     0.4980204845     -2.1149347936
C     2.4062493747     -0.9149291289     -2.1323376323
C     3.0576944847     -1.7021279353     -1.1503444322
C     0.1127946619     0.8310628207     -2.5688332835
C     1.3970049226     1.3587970718     -2.3062833502
C     1.0858013231     -1.4637643762     -2.3397250698
C     -0.0139215639     -0.6522437758     -2.6355453757
C     3.0571600562     -1.7020901298     1.1514807047
C     2.121081907     -2.7446595436     -0.7170903204
C     2.1205823956     -2.7443428498     0.7176671391
C     2.4053827137     -0.9150560389     2.1333986926
C     2.5678598387     0.4978175951     2.115990637
C     3.4306060771     1.0823826109     1.1512641041
C     1.0847682391     -1.4639779989     2.3400884696
C     -0.0150750279     -0.6524573078     2.6354840434
C     -1.3058585572     -1.2442253879     2.3908734663
C     -1.4721503506     -2.3293739427     1.3951495615
C     0.9259649853     -2.6138006761     1.4153082155
C     -0.3370442227     -2.8201236716     0.7408348467
C     1.5697345802     2.5104513991     1.4174013563
C     2.7969454972     2.3202362017     0.6969078981
C     0.4613743482     2.9903189881     0.7329817819
C     0.1117345303     0.8308702599     2.5687424506
C     1.3960079551     1.3586676998     2.3068232309
C     -0.8628108081     2.6306854627     1.1616369611
C     -1.067771043     1.6041904015     2.1414133915
C     -2.9671602557     2.0102622762     -0.0006550796
C     -1.7196410204     2.6628330198     -0.0004155609
C     -3.3498277562     1.2907984995     -1.1750577633
C     -3.3505363888     1.2907015038     1.1736815604
C     -2.4467517799     -0.459543861     2.3566453743
C     -2.3631446342     0.9713980134     2.1415465896
C     -3.98479835     0.0300956685     -0.7136435139
C     -3.4073169431     -1.0318812223     -1.399939167
C     -3.9849119774     0.0301721748     0.7121590274
C     -2.7310026891     -2.1042473615     -0.7086872964
C     -2.7312596079     -2.1041425113     0.7077827616
C     -3.408092017     -1.0320245378     1.3990334709
C     0.92658891     -2.6135128944     -1.4148416872
C     -1.4715074539     -2.329186691     -1.3954951215
C     -0.3367065021     -2.8200676317     -0.7408274022
C     -2.4455183358     -0.4593669002     -2.3573837145
C     -1.3048141318     -1.2440928577     -2.3914849456


