52

 C     -1.5078510657     -1.989946961     -2.2166714918
C     -0.118134623     -2.1135568918     -2.1594223646
C     0.7188054206     -0.9896343343     -2.415404675
C     0.0428552121     0.3042903059     -2.5897561549
C     0.8432843857     1.4717563595     -2.4501005105
C     2.269255151     1.365992305     -2.1892310541
C     -1.3995119469     0.4605292303     -2.3510399542
C     -1.8999626773     1.6388532388     -1.6022328289
C     -2.1770212586     -0.7504946073     -2.3129239398
C     -3.1006090036     1.4879875147     -0.8022765599
C     0.1959612006     -3.0573326356     -1.074926392
C     2.8283085542     0.1611775552     -1.7337505281
C     2.0833614004     -1.0611011801     -1.8618149389
C     2.4391451294     -2.1160318688     -0.9535528533
C     1.4285684855     -3.0870820971     -0.4985979784
C     3.5704766055     0.4772148474     -0.4761928867
C     3.5757514696     -0.4432068964     0.5442921713
C     3.2365124462     -1.8107677055     0.2026572395
C     3.2710290886     1.8461375365     -0.1667946872
C     2.6861415476     2.4715045464     -1.3538264021
C     1.4942635434     -3.177203108     0.9526416552
C     2.6313272328     -2.4152371435     1.3211539945
C     0.3894723703     -2.6385241767     1.6751438694
C     -0.9186032807     -2.6415507733     1.1196160395
C     -1.0065302515     -3.1419131181     -0.233907979
C     -2.0777039565     -2.7304878261     -1.0440999341
C     -3.1280935123     -2.018608985     -0.535650385
C     -1.386186658     -0.4598080495     2.3411228717
C     -1.9006720444     -1.648985087     1.5911564071
C     -3.1038241439     -1.5108321487     0.8210281505
C     -2.1556860992     0.738070263     2.3122963487
C     -3.3251165518     0.8380974081     1.4642702679
C     -3.7525695834     -0.2242602335     0.7308940346
C     2.2604802857     -1.3564636095     2.2379063249
C     0.8751090316     -1.4698385885     2.4638714267
C     0.0634290386     -0.3095943933     2.5692636752
C     -3.7552934366     0.2010174339     -0.7051091945
C     -3.3434900703     -0.8587716782     -1.4455791929
C     0.7432277194     0.9931335529     2.397748812
C     -0.1033262687     2.12161913     2.1485651961
C     -1.4794421377     2.0002363835     2.2102450619
C     1.4524256515     3.0706677039     0.4770400865
C     2.4834191837     2.1424417999     0.9635106765
C     2.1223310183     1.0763305071     1.9008677702
C     2.859551613     -0.1305415063     1.7925753777
C     0.2133008125     3.0443769972     1.0301450366
C     1.5336939605     3.1402710865     -0.9783244031
C     -3.1012018824     1.9880117329     0.5358967205
C     -2.0332056457     2.7053802725     1.0272355027
C     -0.9921876146     3.1534229817     0.2001933592
C     -0.9221101476     2.6419155178     -1.1525899065
C     0.3768063019     2.6113393922     -1.7275708811


