52

 C     0.5399367652     1.1075670055     2.6478993904
C     0.2738488399     -0.2808533878     2.6635772414
C     -1.1453042458     -0.6948785402     2.5010680786
C     -2.1516997488     0.2911950409     2.2877629281
C     -3.2711373139     0.0221469396     1.4267359182
C     -0.3671875024     -2.8632362952     1.6551070642
C     -1.4254204477     -2.0103976241     1.9531500711
C     1.0236625161     -2.5137700342     1.771911795
C     1.3787809458     -1.2038143814     2.2583072753
C     2.6027495352     -0.6693574856     1.7592439238
C     -3.5239829229     1.1590303154     0.6087483708
C     -3.717703489     0.6802251886     -0.7130462427
C     -2.4439035817     -2.19290711     0.8999571705
C     -3.3567151166     -1.1959851112     0.6359980872
C     -3.6080833109     -0.8081960984     -0.7151020049
C     -2.9740204539     1.1979205158     -1.7580675091
C     -2.681731607     -1.1660633393     -1.7221363921
C     -2.3528584564     0.058670775     -2.4360257891
C     -1.9467394308     2.1804096159     -1.5074985131
C     -1.7573237756     2.7409473211     -0.1819137307
C     -2.5188881827     2.1577374505     0.891581628
C     -0.4264310344     3.2034648682     0.1364499348
C     -0.7872758309     1.7550961302     -2.2244293806
C     1.6076145612     1.2803988569     -2.2901868955
C     0.5318018938     2.1792927488     -1.8980773311
C     0.7139788099     3.0287970776     -0.7767063087
C     -1.7547862599     -2.8433822417     -0.2194853891
C     -1.6618832104     -2.165034775     -1.4839364605
C     -0.3135786547     -1.9629432979     -2.0685902626
C     0.0054495143     -0.6330317391     -2.6479828525
C     -1.0343025503     0.3742023236     -2.7018183314
C     1.3205699289     -0.1448315251     -2.6205674179
C     0.0766790208     3.0466580713     1.4422787198
C     -0.5059125779     2.0861392865     2.3102273057
C     -1.8033019188     1.6793590963     2.0687125613
C     2.993722746     2.0570695111     -0.4016207831
C     1.9333766853     2.8919702279     0.0207860256
C     1.506856229     2.7886002122     1.3681163874
C     2.8470505575     1.3464560459     -1.6579822483
C     3.5241496912     1.1046284675     0.5182607535
C     2.8276001094     0.7786398675     1.7091056677
C     1.8107160459     1.6433665158     2.1534402637
C     3.7646787168     -0.1692713324     -0.1901724444
C     2.1335149274     -2.1346298819     -1.4621585436
C     2.4154424665     -0.9310622854     -2.0959843558
C     3.3644570634     -0.0181202246     -1.5093660636
C     -0.6066930492     -3.4633542654     0.3306257112
C     0.600208117     -3.4470812656     -0.3266841816
C     0.7884958458     -2.7006831222     -1.5347961524
C     3.2567415507     -1.2507060591     0.5919015456
C     2.6316256778     -2.3246297831     -0.0846239564
C     1.663165912     -3.0517882694     0.618005722


