52

 C     -1.0269197699     -2.9261994097     -0.9997203178
C     -1.9706538017     -2.1754083413     -1.6388001556
C     -3.1093833494     -1.7017666909     -0.8812730857
C     0.3695675038     -2.8241968411     -1.4111625465
C     0.8204209406     -1.7346750654     -2.2472530589
C     2.1679470295     -1.341548442     -2.0826882783
C     -3.5136437005     -0.4503680373     -1.4583992085
C     -2.529142376     -0.022499937     -2.3710891602
C     1.536772579     1.0574155211     -2.5246793171
C     0.179945011     0.72733455     -2.6779209338
C     -0.1810774295     -0.7238215477     -2.6785217739
C     -1.5379574826     -1.0541996439     -2.5251795578
C     2.5280825517     0.0256193484     -2.3722793779
C     -2.9408180401     1.7252084969     -0.8884727529
C     -3.6607871508     0.5454276657     -0.4517805625
C     -2.3320940917     2.5158014809     0.0757651904
C     -1.136662102     3.193978913     -0.2900173104
C     -0.8215291074     1.7377362641     -2.2449904516
C     -2.1688415464     1.344590226     -2.0804338006
C     -0.3701767795     2.8263092939     -1.4076184609
C     -2.1361528773     2.0064181081     1.4401526265
C     -2.5343686971     0.6636242546     1.7537599121
C     -3.294953453     -0.0628753378     0.7753211952
C     -1.6734817499     -0.1065891107     2.6311585958
C     -0.8576921421     2.5322978751     1.9193342178
C     -0.0198269286     1.7264571306     2.7136958889
C     -0.5352415404     0.4813025309     3.1986801362
C     -0.2530269678     3.2731759091     0.8674054878
C     -1.3625445564     -1.5279077912     2.3536428119
C     -1.9373646934     -2.1837908854     1.2278461317
C     -2.9836590863     -1.5109651728     0.5084342482
C     -1.0785555116     -3.0770040239     0.4630645421
C     0.0208553882     -1.7301085958     2.7115080755
C     0.8584595037     -2.5348290514     1.9156885901
C     0.2536228975     -3.2745060917     0.8632528177
C     0.5364217225     -0.4855143853     3.197836114
C     1.1366931402     -3.1936212388     -0.2942402443
C     2.3322939977     -2.5159573522     0.0718369852
C     3.6608187122     -0.5449494255     -0.4538148187
C     2.9403151913     -1.723704595     -0.891600351
C     1.674550169     0.1030485442     2.6308565219
C     3.2954612551     0.0619572697     0.7746332679
C     2.5351621989     -0.6660270936     1.7522881242
C     2.1369314022     -2.0082965032     1.4369371078
C     1.0788218977     3.0765673462     0.4667632512
C     2.9838925207     1.5102483648     0.5093930754
C     1.9378121042     2.1819707602     1.2299517529
C     1.363544885     1.5247857906     2.3551897892
C     3.1089155514     1.7025447977     -0.8801836676
C     1.9699175244     2.1776116769     -1.6367997185
C     1.0265118121     2.927439188     -0.9965468168
C     3.5128174418     0.4524593036     -1.4589307297


