52

 C     -1.8917975563     -2.4659524866     1.179004133
C     -2.4831723105     -2.435755508     -0.0822576581
C     -3.5298790183     -1.478741244     -0.3095922242
C     -0.4394819598     -2.6318810329     1.2843854646
C     0.3848759984     -2.8166122917     0.1521213496
C     1.771850191     -2.630707973     0.3767802506
C     -3.4197724443     -1.0154962743     -1.6723661832
C     -0.1793448467     -2.5023721953     -1.1778311283
C     -1.5968354378     -2.4222313664     -1.2897978979
C     -2.1799767276     -1.5492100492     -2.2308359909
C     -3.344705068     0.3645641298     -1.6858625877
C     -3.580620477     0.8380736059     -0.3087838075
C     -2.8587512574     1.9193900205     0.124832386
C     -2.1220268107     0.7528286112     -2.3892331557
C     0.0229908736     1.8987654219     -2.256784703
C     -1.3875064808     1.8828972283     -1.9748807075
C     -1.8486889764     2.5647922595     -0.7626716044
C     0.0030454329     -0.5400661007     -2.7307725906
C     -1.4147798687     -0.4698555103     -2.7563318466
C     0.7019673455     0.7047640186     -2.6968928041
C     2.0464992423     -1.629101696     -1.8415032599
C     3.8021992043     -1.6186567366     -0.2679164995
C     2.6403606746     -2.3044952334     -0.7270735753
C     0.6342737512     -1.6915687337     -2.0725141249
C     -3.0516744513     -0.3768141149     1.8095125012
C     -2.3040583055     0.8053565563     2.2813496095
C     -3.7157640974     -0.3548438427     0.5599477128
C     -2.2994708328     1.9469619314     1.4910556414
C     -1.1113559117     2.7246452009     1.4430038027
C     -0.8936650515     3.158480935     0.0520420166
C     -2.2910146629     -1.5161292347     2.1653347339
C     -1.0388544468     0.3628395672     2.8733613873
C     -1.0702382829     -1.0573689395     2.808011065
C     0.1164495549     2.3208258427     1.9708294849
C     0.2136091776     1.0300644182     2.639767967
C     1.4435630204     0.2585700264     2.4910236546
C     1.3435549345     -1.1948588321     2.3314881629
C     0.0431532274     -1.7930124688     2.3679798806
C     2.2787973679     -1.8891049511     1.5139646876
C     1.1588331639     2.7432019064     1.0266785514
C     2.3520102008     2.0695110295     0.9860313668
C     2.5801967059     0.8924086613     1.8381179468
C     2.25790058     1.954282616     -1.472469661
C     0.9681532177     2.6119785579     -1.4216824207
C     0.5089251435     3.1549732399     -0.2128656145
C     3.0277400664     1.8273481128     -0.2938516379
C     3.848949505     -0.3754061529     -1.0106958224
C     2.805112809     -0.3946775964     -2.030344033
C     2.0986021663     0.7789923871     -2.3065311512
C     3.8783883856     0.7044515912     -0.1126060847
C     3.6143732049     0.1451816448     1.2414524486
C     3.5070301376     -1.2612489554     1.0868725691


