52

 C     -2.4728584855     -2.0546326205     -1.4931291835
C     -3.3589566507     -1.0114778922     -1.4148959298
C     1.0353178855     -2.5939436475     -1.3313292178
C     -0.3006466326     -2.7397918552     -1.2705191558
C     -2.8429501975     2.2749688354     -0.4096033588
C     -3.5455894566     1.196020146     -0.8610488987
C     -2.9757172228     0.3009116151     -1.8575617303
C     -1.1934780278     -1.8956691402     -2.080526121
C     -0.7432392508     -0.6262531966     -2.5434645064
C     -1.649924976     0.5351617484     -2.3561332766
C     0.3923132577     1.9767544949     -2.1974790367
C     -1.0191230836     1.8331939305     -2.032599566
C     -1.5976867444     2.6473044624     -0.9958949973
C     2.8881019972     -1.3101425677     -1.6965434405
C     1.6012943962     -1.5369929474     -2.1780878715
C     0.7263115957     -0.4444481032     -2.6174384369
C     1.2751120107     0.850210934     -2.5591465134
C     0.5984018582     3.1382231976     -0.049083453
C     -0.761308091     3.0891752503     0.1057891151
C     1.1307886775     2.8052841707     -1.3294312254
C     -3.2248762711     0.9324023894     1.4807569187
C     -3.9399692895     0.3852317888     0.3310680227
C     -2.3981315453     0.0704276291     2.2318113101
C     -1.344604966     2.5435665906     1.3445154855
C     -2.6636257097     2.1745995898     1.0649709098
C     -1.0861213755     0.5078783246     2.6398488945
C     -0.5029290962     1.7342426553     2.1959165068
C     -2.3129353381     -1.3628639311     1.8853187373
C     -3.0372417556     -1.8682613126     0.7857881212
C     -3.8376041467     -0.9352268496     -0.0032451282
C     -0.9581092394     -1.7999806361     2.1236182026
C     -2.3054129639     -2.6695448711     -0.1427675906
C     -0.9648229416     -3.0017965296     0.0206219678
C     -0.2400978603     -2.6339797028     1.2184068494
C     1.1080071507     -0.6096350395     2.7141792359
C     -0.2516910417     -0.6848631701     2.7467763419
C     1.901639039     -1.6597951776     2.0645601128
C     1.2327853309     -2.5507816899     1.1562577294
C     1.8708185551     -2.7394783218     -0.128003701
C     1.5090843033     2.5911904904     0.967954172
C     0.9639516576     1.8130110507     2.0257631248
C     1.7664518882     0.6848308083     2.4762801431
C     3.140814199     -1.0575326238     1.7273244462
C     2.7143234029     2.1632993582     0.2666585435
C     3.4915666476     1.070634568     0.7507162333
C     3.0210328258     0.4045790999     1.9343624075
C     2.444185434     2.2351817159     -1.1307156373
C     3.9338801662     0.0742221551     -0.1654595524
C     3.3869916891     0.0164992976     -1.4839222238
C     2.5850744091     1.0917145008     -1.9595851174
C     3.7266853721     -1.2565971047     0.4730580263
C     3.0847286105     -2.0970318673     -0.4447066879


