52

 C     -3.595458903     1.2791476359     -0.8665414038
C     -4.0590169465     0.5091781543     0.19472047
C     -3.3424244201     0.98410362     1.4307715101
C     -3.9902748635     -0.8941249392     0.1529033159
C     -2.7202631433     -0.1541020552     2.0348814036
C     -3.1411666067     -1.2958879921     1.2934931842
C     -3.4168235766     -1.5173401874     -0.9717558575
C     -2.7786563706     -0.7597448288     -2.0124837003
C     -2.8605862283     0.6552189231     -1.9416253943
C     -2.4418360172     -2.5024166391     -0.5033622969
C     -0.0991836468     -2.8322492431     -0.8545898898
C     -1.3430715634     -2.5172076294     -1.384538939
C     -0.8818682142     -2.3207250511     1.4316089553
C     -2.2173394587     -2.3079225418     0.8961000833
C     0.1177592342     -2.871250859     0.5868577343
C     -0.4742769742     -1.2599573038     2.3842005405
C     -0.7707252291     1.2114335366     2.5522898871
C     -1.3596619877     -0.0782780793     2.5362271804
C     0.9042896522     -1.0815861045     2.594768283
C     0.7427422259     1.6010060688     -2.3495972675
C     -1.6514627617     1.4172650414     -2.1351290444
C     -0.4516886546     0.8330330503     -2.5732090458
C     -0.3295631468     -0.6477501587     -2.6308019054
C     1.0090102236     -1.2452552281     -2.3819775961
C     -1.4811292719     -1.3849801465     -2.3058234236
C     1.0981750784     -2.3460277083     -1.4703704978
C     -1.6019290525     2.4796840814     -1.0913737165
C     -2.7374733302     2.3464119489     -0.3151702156
C     0.815774096     2.5730273943     -1.2258900987
C     -0.332260424     2.8486728986     -0.48820305
C     -0.2173856452     2.7965592915     0.9548559054
C     -1.3116772317     2.2666016908     1.6999821504
C     -2.5896660412     2.1279879314     1.1186018522
C     2.880230387     1.6225268039     -1.5139406594
C     2.1258735024     2.433880705     -0.6227292772
C     1.9997762684     1.0433844483     -2.5099732707
C     2.1742625785     -0.4069290241     -2.4595439453
C     3.3097521577     -0.6673774548     -1.6536041472
C     3.7601613476     0.6167959829     -1.0487027004
C     4.0003210533     0.4513362989     0.3018446623
C     3.2140457571     1.2216827748     1.2670546085
C     2.2451885024     2.2139680207     0.8052266424
C     1.0293444582     2.3402929939     1.5511644124
C     2.1721476298     -2.4562982384     -0.492997269
C     3.8202857249     -0.985077896     0.5928350033
C     3.3034776118     -1.6398837057     -0.6057951761
C     3.1078864163     -1.0797654565     1.7728644765
C     1.9198695627     -1.8768696697     1.8955690474
C     1.520088313     -2.6554802022     0.8025299119
C     0.6584771804     1.3690523259     2.5501152293
C     2.788833677     0.281296805     2.2423417211
C     1.4790970706     0.2609899162     2.7658916176


