52

 C     -3.507710457     -1.0690439162     1.5413592513
C     -2.3264474693     -1.0544423253     2.3770673733
C     1.8640189335     -0.2796927757     2.5387651006
C     0.4660464437     -0.5590285561     2.6415110043
C     -3.1867791069     -1.8743632521     0.4401356492
C     -3.3319602856     -1.0950390039     -0.7838002909
C     -2.3896014684     -1.2838908483     -1.7877434035
C     -1.940593493     -2.5765753155     0.6924345972
C     0.3215095799     -3.1000619147     0.0050349204
C     -1.0497948896     -2.8732827991     -0.3655623932
C     -1.3051387248     -2.2635395803     -1.6516023064
C     -0.0079257081     -1.8653725197     2.1318413605
C     -1.4060328316     -2.0564072301     1.9378344696
C     0.8423771979     -2.602713415     1.2696199306
C     -3.1109417527     1.3757645924     -1.0521691142
C     -2.1976458735     1.1563703169     -2.1885346018
C     -3.6930475824     0.275636915     -0.38151902
C     -1.8624913383     -0.1455375797     -2.5405314939
C     -0.5011966086     -0.4772300893     -2.9411105555
C     -1.1313663798     2.1606136254     -2.1248584582
C     0.1996540651     1.817980217     -2.4390188375
C     0.502681575     0.4767726967     -2.9409385919
C     1.1324417393     -2.1609432148     -2.1238914953
C     -0.1984278113     -1.8183674666     -2.4388163521
C     1.3559756087     -2.9068622455     -0.9385835463
C     -2.571762412     2.4437288848     -0.289572066
C     -1.3555064317     2.9066784955     -0.9397488366
C     -2.2523893989     2.2501676361     1.0856779441
C     -2.7756105947     1.1477193919     1.7616472419
C     -3.6792993905     0.2753266457     1.0527053725
C     -0.8429911697     2.6028794606     1.2687318943
C     0.0068685263     1.8657089658     2.1315445079
C     1.4050530458     2.056688033     1.93817667
C     1.3059874261     2.2632967249     -1.6513049191
C     1.0499863932     2.8732296295     -0.3655137571
C     -0.3215125235     3.1000560953     0.0043676828
C     1.9402437077     2.5766947183     0.6930008507
C     -0.4673836433     0.5594448298     2.6411925577
C     -1.8652944456     0.2800684737     2.5377703046
C     2.3252981734     1.0548199661     2.3780798594
C     3.5069959993     1.0693109767     1.5430686801
C     2.3904783364     1.2836279948     -1.7867072277
C     3.3323271527     1.0949237659     -0.7822240504
C     3.1865295065     1.8744129732     0.4414786011
C     3.1114544213     -1.3759230657     -1.0503164087
C     2.1987307443     -1.1566978737     -2.1871656986
C     1.863777553     0.1451476204     -2.5395897204
C     3.6932101451     -0.2756893852     -0.3795394193
C     2.5719114266     -2.4437864712     -0.287840651
C     3.678763577     -0.2751433459     1.0546774121
C     2.7747132712     -1.1474419215     1.7632834953
C     2.2518372418     -2.2500135344     1.087206484


