52

 C     -2.026800413     -2.7296992474     0.3142569331
C     -2.8545107621     -1.8443040843     0.9451754104
C     -3.6930810018     -0.9729648168     0.0899793188
C     -0.6901667422     -2.9880117181     0.8592387835
C     -0.1703006501     -2.2268157398     1.9564090105
C     1.2537228424     -2.1938118843     2.0650671452
C     -3.8455401591     0.2215367872     0.7427364407
C     -2.9730021139     0.2622338485     1.9110914011
C     1.1849767496     0.1946195211     2.7137543447
C     -0.2579159202     0.2171743746     2.6781903732
C     -0.9510759247     -1.0540618878     2.4193741676
C     -2.3210879426     -0.9968999986     2.0341576594
C     1.8916279407     -0.9959502162     2.5454511433
C     -2.6415911182     2.1910120233     0.6407725268
C     -3.4761738792     1.3403365365     -0.1165894901
C     -1.6794814812     2.9255564179     -0.0446242167
C     -0.4977150262     3.2856116656     0.66302332
C     -0.8838852128     1.4847488629     2.3126830647
C     -2.2459444804     1.4736825049     1.8864337724
C     -0.0595058527     2.5596989122     1.784873896
C     -1.2904211785     2.5557539029     -1.3931176573
C     -1.8227499171     1.3622818152     -1.9730416692
C     -3.004631036     0.8175297341     -1.3519242066
C     -3.2126981118     -0.6462722337     -1.2693820697
C     -2.3149421882     -1.5077421266     -1.8487740641
C     0.1226669285     2.9127263902     -1.5324304897
C     0.9875609653     2.0857995791     -2.2722995281
C     0.4926770054     0.7938449335     -2.7800350974
C     -0.8683743877     0.4239618602     -2.6358158407
C     -1.1250084637     -0.9879482918     -2.5525485467
C     0.5969120377     3.4139062961     -0.2867202266
C     -1.9393738488     -2.7252593495     -1.1517887166
C     -0.5975897079     -2.940740038     -1.4472091387
C     1.5257988859     -3.0041012091     -0.2340357739
C     0.1606846601     -3.2850551429     -0.2618254286
C     1.5736466     -0.1756267355     -2.6461859287
C     1.3008408549     -1.5311128178     -2.263792324
C     -0.0731743764     -1.9256594061     -2.3489567875
C     2.1492829166     -2.1487066079     -1.279012685
C     2.0941119564     -2.6883064345     1.0143995966
C     3.383612438     -0.0152889402     -0.9661198111
C     3.1715849024     -1.3856003627     -0.6190116012
C     3.1784957159     -1.7386643117     0.7800148384
C     2.6807172695     0.5029630784     -2.0679536314
C     1.7924499831     2.9395459367     0.3134308612
C     2.7027689936     2.2119822361     -0.4746096304
C     2.3035753964     1.8881818055     -1.8068198841
C     3.1152196314     0.6572916789     1.3918170269
C     1.9966777778     1.2820928217     2.1215200765
C     1.3882349384     2.404929629     1.6311646848
C     3.3854426512     1.036535718     0.0763575326
C     3.0833918554     -0.7369752687     1.7332511156


