52

 C     -2.5366348214     1.8098889749     -1.7252922474
C     -3.7825619164     1.2926118721     -1.3355695435
C     1.6537497441     2.0580227474     -1.5622073855
C     0.2632482005     2.0088949738     -1.6668264388
C     -3.7687001352     -0.1228064486     -1.5908109611
C     -4.1247205692     -0.7795856584     -0.3833866086
C     -3.3824543978     -1.8752191756     0.0501636437
C     -2.4799300677     -0.4567237024     -2.1855634761
C     -0.2695199025     -1.6028356857     -2.0066100722
C     -1.7301283741     -1.6103261581     -1.7847648939
C     -2.2539141351     -2.3631217547     -0.6742462219
C     1.8753325792     -2.5380692051     -1.2116040778
C     0.4850584784     -2.6042971702     -1.3086571904
C     -0.3316134543     0.8381605333     -2.3151767046
C     -1.741352151     0.7732878899     -2.364687798
C     2.5097767781     0.9618815407     -1.9525000374
C     1.9255212981     -0.3185951228     -2.2159508435
C     0.4544809668     -0.394958534     -2.3596449522
C     2.6500622004     -1.4810781804     -1.721022524
C     -2.9046015947     -1.622256156     1.4189517986
C     -3.2709378431     -0.2730145401     1.7702027014
C     -2.2368708607     0.517845518     2.2868266331
C     -0.011810368     -3.011930504     0.0047574127
C     -1.2999010484     -2.8103789915     0.3372359694
C     -1.6198978832     -2.1578993366     1.6060454016
C     -0.5692425849     -1.3950388627     2.2425523818
C     -0.9211891624     -0.0594954806     2.5997436217
C     -3.8584915503     1.4709059701     0.1158722399
C     -2.7023736582     2.2364749281     0.5555363964
C     -4.1214783081     0.2357958738     0.7103348221
C     -1.9946134793     1.8264550686     1.6968171747
C     -0.5812666263     2.0675619743     1.762761771
C     0.1169347273     2.6733227621     0.7030276341
C     1.5286900292     2.6326376935     0.7878576089
C     1.0688192553     -2.7228771712     0.9616338142
C     0.8494772161     -1.708491123     1.9561699086
C     1.9105490799     -0.7128723768     2.1479558808
C     1.4754626548     0.6813735997     2.3024900435
C     0.0751459266     0.9496104491     2.4326207518
C     2.2319192422     1.7379614699     1.7009461399
C     -0.5254453259     2.6619095321     -0.6119041424
C     -1.9121302321     2.5376271324     -0.6427164918
C     3.5820208028     2.1641993578     -0.196626748
C     2.2962628179     2.6987766323     -0.4047396242
C     3.9757758306     0.1840139349     1.0207876627
C     3.5232565404     1.4990952191     1.1175019603
C     2.2610436066     -2.7675319566     0.2174151345
C     3.3179326031     -1.9440426204     0.5069674559
C     3.2102599034     -0.9238042731     1.5198696023
C     3.7147542679     1.0864064951     -1.1180342293
C     4.2401769613     -0.0580652278     -0.4405087777
C     3.7360987393     -1.2893967268     -0.7540135753


