52

 C     -3.5119147755     -1.257529248     0.794117932
C     -3.4883232183     -1.6244495897     -0.559643906
C     -2.4693128645     -2.4474593639     -1.0258772999
C     -1.443281877     -2.916172949     -0.1809119952
C     -1.3644188606     -2.4699665227     1.1936777068
C     -2.4276798081     -1.6136409653     1.6541763784
C     0.9987337194     -2.9203147694     -0.4390341193
C     -0.2263245381     -2.8849036623     -1.000446555
C     1.1287553631     -2.7712396403     1.0215445735
C     0.2296074022     -1.1803204351     2.623475675
C     -0.016390916     -2.2932119457     1.7689385376
C     2.4104299562     -2.2667853031     1.2307883194
C     -3.4846753281     -0.3798622867     -1.3741853953
C     -3.638258585     0.7163939929     -0.4883794724
C     -2.8519581657     1.8779597774     -0.7302251154
C     -2.3859474106     -0.4417395005     -2.2761782781
C     -0.0278129271     0.3649651684     -2.670276563
C     -1.460828236     0.6651200112     -2.4247718164
C     -1.8188855763     1.8734201475     -1.7526096953
C     2.2647040254     1.1944665282     -2.2838272003
C     0.9133968288     1.4391337504     -2.483462002
C     -0.4702912322     -2.0016619808     -2.1621390296
C     -1.8319417237     -1.7659955654     -2.1847217659
C     2.1367393553     -2.2627608158     -1.0914830256
C     1.8944081696     -1.2227571829     -2.0824018883
C     0.4981811879     -0.9793078772     -2.49436452
C     2.8086966731     -0.1103587924     -2.0681809134
C     -2.3408178267     2.5960995552     0.3943201736
C     0.5393244027     2.5914173791     -1.6339265984
C     -0.7732098616     2.7965893693     -1.2946555591
C     -1.0610063913     3.1825258013     0.0457725529
C     -2.2202873142     1.9713517834     1.6600492265
C     -2.8651784862     0.7204885988     1.8641330197
C     -3.7026166604     0.197604204     0.8572445915
C     -0.8340270696     2.1736124117     2.092996472
C     -2.0935312512     -0.4006772491     2.4150169041
C     -0.797280377     -0.1849376719     2.8269800896
C     -0.1594806807     1.1333808659     2.6956507444
C     1.5857867425     2.7679196703     -0.6508304751
C     1.259437946     2.6959284468     0.7484469375
C     -0.1170822296     2.9485987667     1.0697520463
C     2.7170691126     2.0641702919     -1.1645615725
C     3.5683893776     1.3520800768     -0.3707420054
C     3.230206328     1.1329120253     1.0338320868
C     2.0240050544     1.7342659722     1.5766566305
C     1.2652905326     0.9300139179     2.4914315329
C     3.0888780313     -2.0762353659     -0.0707230825
C     3.8545791955     -0.8945874119     0.0038405391
C     3.7972472494     0.0342387962     -1.0163131282
C     1.5072173083     -0.488257027     2.6120828887
C     3.5287487812     -0.2260034505     1.2947356447
C     2.6329014485     -1.0735307363     2.0051917741


