52

 C     1.7589879639     -1.5770012004     -2.3298125881
C     0.4998762646     -2.2840644006     -2.3426200641
C     1.5405134577     -0.1949125125     -2.6653888324
C     2.314881592     0.8184204112     -1.9841612851
C     3.3186365421     0.3763217958     -1.0395047603
C     1.6533471948     2.0602847126     -1.752129252
C     0.14175319     -0.0536083378     -2.9095155679
C     -1.9234416531     1.0796646035     -2.2251518087
C     -0.5468070976     1.1488173869     -2.6136715689
C     0.266163996     2.2459341443     -2.1012295493
C     -3.547528119     -0.0531307275     -0.9475153161
C     -2.5686572755     -0.2275452629     -1.9384816971
C     -0.5080200919     -1.372651616     -2.6491658134
C     -1.9747035029     -2.4396043761     -0.9926719776
C     -1.8011622295     -1.4581556425     -2.0131129881
C     1.8621780233     2.7802583874     -0.4764148986
C     2.6533411101     2.2373212456     0.5144986767
C     3.547555846     1.1411510785     0.1532047843
C     0.6178512952     3.3502125533     -0.0940132338
C     -0.3262145893     3.1566441473     -1.1638669859
C     3.7524717137     0.2962656433     1.2660875398
C     2.0279168732     1.8682413057     1.7829153864
C     2.6650146994     0.634640817     2.1605472074
C     3.5393112917     -1.0464393149     0.8323823126
C     3.3597763929     -1.0215958781     -0.5986738566
C     2.4975555754     -1.958982927     -1.1984581008
C     2.428290023     -1.5729538723     1.5652742956
C     0.246292493     -2.6570618281     1.6423520411
C     1.5289398055     -2.5547334101     1.0106450852
C     1.6285241154     -2.8371770158     -0.3819604965
C     -0.0241803143     2.982227062     1.1140215681
C     0.6300652986     2.0560997695     2.0056123274
C     -0.1622098666     0.9370047199     2.5667117181
C     0.4858382542     -0.4016820894     2.6961676871
C     1.8887806593     -0.5138194052     2.4304826259
C     -0.2782037572     -1.5741192372     2.5025933861
C     -0.8502710539     -3.1520318282     0.9112573832
C     -0.8157463478     -3.211408008     -0.5182202521
C     0.4211895729     -3.0916971044     -1.1508962805
C     -2.3496625711     -0.2610324783     2.2924479487
C     -1.7031220064     -1.5152520428     2.3167107842
C     -2.0618457841     -2.4882905303     1.3310337049
C     -1.4502051311     2.8693105637     0.8223869295
C     -2.21395308     1.9709834287     1.5457641881
C     -1.5646952015     0.9699893314     2.404355806
C     -3.452300189     1.3344187129     -0.4941716503
C     -2.4695834103     2.0193827647     -1.2861353827
C     -1.6150911937     2.9465499333     -0.6387996372
C     -3.3266562095     1.3205314266     0.8907252437
C     -2.7979642844     -2.1139438237     0.178594869
C     -3.4013041883     -0.0568283351     1.3576613994
C     -3.5415240961     -0.9109527397     0.2113189458


