52

 C     -3.7207454107     -0.7246845517     -0.9758870548
C     -2.9120918128     -0.0255813326     -1.9431966142
C     -2.6733231175     1.3575920958     -1.7615409965
C     -2.9779168139     -1.944759574     -0.6237509138
C     1.0596451245     1.5225294384     -2.3167904969
C     -1.3040412519     1.8600048196     -1.9890209007
C     -0.2719046247     1.069430036     -2.5397603584
C     -1.7867146196     -0.8908941422     -2.2828095693
C     0.5982633952     -1.2695388133     -2.5304107333
C     -0.5117311352     -0.3940606436     -2.6714131364
C     1.9771948279     -0.7813944072     -2.4642992072
C     2.2242697274     0.6109580301     -2.3837800856
C     -0.5541842527     -2.9911589345     0.4296026309
C     -0.6758420131     -2.7517800411     -0.9841017911
C     -1.8703934517     -2.1002013284     -1.4604181844
C     0.5151777305     -2.4856176037     -1.7137395384
C     -0.9864917072     2.7469977871     -0.8911818299
C     -2.0905652883     2.7264115967     -0.0106555003
C     2.6956376246     2.2680894027     -0.8599947114
C     1.3507808959     2.4977560697     -1.307566679
C     0.3280418953     2.8556428639     -0.3772948385
C     2.974654518     2.215969655     0.4819596189
C     1.8964723204     2.295315532     1.4567586125
C     0.5630106508     2.6015361698     1.0597438014
C     3.242785307     1.0830155277     -1.5395696945
C     -3.2051654541     2.0131222372     -0.6068368382
C     -3.8455708931     1.2664706586     0.4254524741
C     -2.9360998467     1.3402504893     1.577015523
C     1.0518652208     0.3638335683     2.744467512
C     -0.309457109     0.7623192594     2.5613337202
C     -0.5420400648     1.9910324195     1.8046342891
C     -1.8759931973     2.2502016835     1.3229645808
C     2.1006023643     1.2014034367     2.3364739319
C     -4.0866978045     -0.0939508746     0.2180919137
C     -3.4124318004     -0.8729764914     1.3261565278
C     -1.5679841547     -2.4508575319     1.3182700045
C     -2.8172188811     -2.0469103211     0.8081378751
C     -1.3243922294     -0.2978592777     2.5447041326
C     -2.661080773     0.0319194295     2.1121729869
C     -0.887295714     -1.6361623129     2.2927871332
C     2.7855999268     -1.002353493     1.8488872381
C     1.4851577156     -1.0207525813     2.5237582459
C     0.5281895847     -1.9594176296     2.1976371134
C     2.9782337524     -1.7765677206     0.6952578483
C     3.2163767955     0.3697164225     1.834396835
C     3.5148937222     -1.1440086588     -0.5201349673
C     3.8409430668     0.2323493535     -0.5284154543
C     3.7551719896     0.9685412126     0.7149946845
C     2.6939282242     -1.6346902204     -1.5954012687
C     0.7343498858     -2.8324909067     1.0591245932
C     1.9119868309     -2.714753546     0.2965478516
C     1.7841703244     -2.6589962566     -1.1133503153


