52

 C     0.4837424328     2.9572666119     -0.1109937114
C     -0.8543074469     3.1793488644     -0.344272352
C     -2.8985757813     2.3323171269     -0.8840088906
C     -3.5877680636     1.1899378471     -1.1306242083
C     -2.9091411013     -2.2560928302     -1.1308740617
C     -3.6343053275     -1.0863958856     -1.3408737226
C     -3.0258336937     0.0769406824     -1.8916421961
C     -1.5471600836     2.4902152624     -1.3710211778
C     2.5845216318     2.0581653253     -0.6650458509
C     1.2630587923     2.2964471827     -1.0959364087
C     0.5780981974     1.3558648949     -1.9716134592
C     -0.8585697509     1.3751096764     -2.0323436966
C     -1.6135360689     0.1065170891     -2.2150972884
C     1.3300421136     0.0961594088     -2.2160891446
C     -0.8674716267     -1.1376112718     -2.0510498417
C     -1.5246685824     -2.2768483643     -1.4707757557
C     -4.1376503486     0.6426019341     0.1394065822
C     -4.2456181384     -0.7147378218     -0.0086991208
C     -3.6721779618     -1.5767407884     0.9580934559
C     -3.0917829816     -2.694096501     0.2750044993
C     -2.6628835051     -1.0088219969     1.8649359937
C     -2.4474983151     0.4116842944     1.9713313709
C     -3.3553764248     1.2489725227     1.1993230279
C     -2.834164514     2.4493669242     0.6072400446
C     -1.5998855962     2.9297793712     0.9220683626
C     -1.5281611383     -1.8858761711     1.8081827462
C     -0.1939721188     -1.4481502599     1.9936732767
C     0.076957976     -0.0575758614     2.3132071952
C     -1.0433881773     0.8812786294     2.2142363034
C     -0.6984077518     2.208531239     1.7710736159
C     2.5314979754     -0.5441060883     2.035033188
C     1.4824983145     0.4053053332     2.2167236061
C     0.8358486795     -2.1702883825     1.2589522251
C     3.1518612092     -2.140211011     0.4302894113
C     2.1777258337     -1.8197706906     1.4335329634
C     -0.8582993253     -2.873073429     -0.3140551911
C     -1.8041218649     -2.8822226088     0.7731152032
C     0.468769018     -2.6460790913     -0.0586428287
C     4.0244021971     1.035572226     0.8339120283
C     2.8792566571     1.8774223615     0.7540897191
C     1.7421988316     1.7088104921     1.6259079823
C     0.6254026026     2.4653684059     1.265926648
C     3.8309273642     -0.1908361679     1.4915822387
C     4.5091048142     0.7521824101     -0.5575852152
C     4.2709381455     -1.2920937201     0.5741804035
C     4.4762955982     -0.6608228686     -0.6714217419
C     1.2765243768     -2.1295314875     -1.1635040771
C     3.4299896319     -1.0950454071     -1.6291736934
C     2.6584532708     -2.0948464678     -0.9723514099
C     3.4551012561     1.1992850164     -1.3819055771
C     2.7576170516     0.0703845322     -2.0757037491
C     0.5939017168     -1.1189804921     -1.9757277209


