52

 C     -1.1252324351     3.2230315619     0.8969807849
C     -1.4592570384     3.294226616     -0.434661037
C     -1.6970287537     -0.2203296517     -2.6239000403
C     -1.3306178452     -1.5483068249     -2.4730813688
C     -2.0842355589     -2.3524394127     -1.5934005987
C     -0.654679478     0.8183945892     -2.7832796826
C     -1.189252527     2.0311779576     -2.3456854115
C     -0.4833432672     2.8912217059     -1.4510804532
C     -2.9829788423     -1.7930722713     -0.6380836937
C     -2.6781765539     -2.4828193862     0.6107140527
C     -1.1251812873     -3.2230427407     -0.8969890541
C     -1.4592418284     -3.2942620929     0.4346439208
C     -3.2484728044     -0.3793976609     -0.6512318996
C     -2.7562286114     0.3258567263     -1.8075779423
C     -2.5046528369     -1.7412589694     1.750481919
C     -2.7562620825     -0.32588544     1.8075296696
C     -3.2484864795     0.3793707323     0.6511783444
C     -2.983017842     1.7930461726     0.6380411437
C     -2.678176582     2.482781898     -0.6107561256
C     -2.5046536531     1.7412360173     -1.7505297561
C     -1.6970886301     0.2203173708     2.6238696373
C     -1.3306886493     1.5482994389     2.4730737302
C     -2.0842943001     2.3524245403     1.5933764878
C     0.0934182798     1.8829236893     2.3326917146
C     2.3553317689     1.2370550748     1.9127710198
C     1.1112359329     0.8935591851     2.493607244
C     0.7269267453     -0.5241237488     2.5860969284
C     -0.6547214883     -0.8183945859     2.7832660698
C     3.322469246     0.2061518106     1.5979594379
C     3.3613529857     -1.5530999677     0.1382716668
C     2.8388771919     -1.1172626183     1.4373154047
C     1.5283171104     -1.5082745392     1.8576361839
C     0.1987592839     -2.8813489925     -1.308501194
C     2.399727621     -2.1404231748     -0.7969228337
C     1.246633047     -2.7626510621     -0.3209078771
C     0.8538757067     -2.5905732971     1.1090319097
C     -0.4833466022     -2.8912244943     1.4510637427
C     -1.1892771589     -2.0311825759     2.3456554132
C     3.3613607431     1.5531543982     -0.1382330904
C     2.3996928459     2.1404546796     0.7969654276
C     4.1572543075     0.568592531     0.4564138005
C     4.1572966556     -0.5685550892     -0.4563751443
C     3.3225298808     -0.2061147035     -1.5979204504
C     2.3553736556     -1.2370268098     -1.9127239256
C     0.1987038163     2.8813259679     1.3085141395
C     1.2466069432     2.762668169     0.3209398232
C     0.8538719833     2.5905743782     -1.1090263742
C     2.8389030812     1.1172899115     -1.4372674159
C     1.5283354157     1.5082818376     -1.8576153278
C     0.7269693373     0.5241357692     -2.5860826089
C     1.1112907315     -0.8935548572     -2.493587776
C     0.0934788197     -1.8829177621     -2.3326685346


