52

 C     -1.0391737157     -2.9014855703     1.2409806773
C     0.1718201178     -3.4395383608     0.8282042356
C     -2.0393273674     -2.7295240578     0.2578119244
C     -3.0611911557     -1.8293835365     0.5477973275
C     2.0002063609     -3.1325827432     -0.5031070826
C     2.5406441321     -2.1625698515     -1.3139145576
C     0.5872103204     -3.3943272358     -0.5389186855
C     -0.2576528706     -2.6935121123     -1.4997338327
C     -1.6192472559     -2.5410106723     -1.135528264
C     3.3744559126     -1.2452817055     -0.5179311642
C     3.3151010612     0.0358466015     -1.0969127018
C     2.26712693     0.0024550407     -2.1322502583
C     0.0450644706     0.8558908342     -2.5997937941
C     1.4089675187     1.1306373181     -2.2889759731
C     1.714324784     2.3435264321     -1.5577183123
C     0.3483365435     -1.6081966124     -2.3239113075
C     1.7515548067     -1.3503643661     -2.2034298627
C     -0.4627026438     -0.4812825489     -2.6691409311
C     2.7825721629     2.3739861836     -0.6438228575
C     3.3977830516     1.1248072741     -0.2365523941
C     2.3371081863     3.0821317283     0.5284327209
C     1.0136146588     3.5522910975     0.3348270066
C     -1.0382985866     1.7285323226     -2.1481370991
C     -0.7607325827     2.7860407018     -1.2203827399
C     0.597666799     3.1387376962     -0.9641250976
C     -1.6974703423     2.9246529832     -0.1093889171
C     3.0397258923     0.9205817056     1.1630287567
C     2.6256779569     -0.3474627666     1.6489144262
C     3.0843758746     -1.4732445888     0.8513132503
C     2.3707453685     -2.7245105903     0.8853439724
C     1.2385474753     -2.8282641218     1.6386580035
C     2.3171891463     2.1023500935     1.5570745965
C     1.3098307684     -0.4408488406     2.3480785276
C     0.6547055649     -1.6971290703     2.3391313183
C     1.0013950131     2.0128184466     2.133042543
C     0.4405811509     0.7509367534     2.4707377802
C     -1.0358645195     0.6177582128     2.4263930902
C     -1.6601394773     -0.707312646     2.2739685991
C     -0.7858467445     -1.8162363853     2.200918588
C     -2.9441416606     -0.8471102408     1.5859076385
C     -1.7774876689     1.7336028788     1.9241332584
C     -3.015430489     1.5440684459     1.2144887695
C     -3.595923811     0.3159676317     1.0609422477
C     -1.118690001     2.8236805693     1.2529320743
C     0.2160113579     3.0357026811     1.4386256201
C     -2.2469787744     0.9531980262     -2.0864566668
C     -3.2272875716     1.2395424786     -1.0965640283
C     -2.8916479595     2.2178389973     -0.1018749753
C     -3.4819398176     -1.1666638634     -0.6953231819
C     -2.4731860556     -1.4876111757     -1.6825851542
C     -1.8830344598     -0.4319987358     -2.3786795728
C     -3.838967855     0.1298692644     -0.4065275405


