52

 C     3.8521640266     -0.6425783461     0.851506573
C     2.8837732509     -0.3215020864     1.8955716692
C     3.934314479     0.218457808     -0.2590427647
C     2.3571292357     0.9596920782     1.948931523
C     0.9740380499     1.1725239895     2.3647706562
C     1.9569344332     -1.4512725414     2.0090523297
C     0.5638150652     -1.2714484624     2.2236215081
C     0.0605668107     0.0862837032     2.5020642868
C     -2.2551818407     -0.7207526047     2.0481610575
C     -1.3669519701     0.3721134818     2.3395188885
C     -1.7825937779     1.675317686     1.9212553185
C     2.4220317768     -2.4356420516     1.0569893118
C     3.5855856231     -1.9780968633     0.3854672558
C     1.4737871295     -2.9469447605     0.1159514198
C     0.1210120683     -3.0093414867     0.4576547838
C     -2.1533447336     -2.9468691535     -0.4985344871
C     -0.7636591932     -3.0396074818     -0.6691959714
C     -1.750991084     -2.0297331519     1.724470886
C     -0.3546516777     -2.2580277249     1.6329400167
C     -2.6812543563     -2.5910212065     0.7346183994
C     3.2291648036     -1.9000789411     -1.0089251304
C     3.4230944991     -0.5693570285     -1.4201339045
C     1.4158517212     2.3826069381     -1.5764720329
C     2.4869013555     1.5411832184     -1.4900346471
C     2.4098036857     0.1961985936     -2.0568211393
C     1.9061138593     -2.4449731737     -1.1820789753
C     -0.3998564985     -2.2152756915     -1.7987700636
C     0.9258257895     -1.7687026458     -1.9828483575
C     1.1212107875     -0.3718331764     -2.3841629272
C     -0.0488069599     0.5031627676     -2.4744410969
C     0.1706666406     1.9185644239     -2.2134205281
C     2.6619965511     1.9463181384     0.918856625
C     1.5332581227     2.8330231331     0.8258518855
C     3.2911427635     1.4745265344     -0.2606800708
C     1.0531074647     3.2271785386     -0.4423214981
C     -0.3308484821     3.5182497275     -0.5944416451
C     0.54622853     2.4422638759     1.839517127
C     -0.8204484361     2.7051688102     1.648712213
C     -1.2315361834     3.3881388041     0.4378313853
C     -1.5722565051     -1.4250260244     -2.1625209781
C     -1.4183178155     -0.0016693127     -2.3334911273
C     -0.8674367273     2.7163503823     -1.7363038226
C     -2.4114115925     2.6822737611     -0.0718013257
C     -2.6958936255     -1.9884302606     -1.5105383155
C     -3.6535822833     -1.1946893027     -0.8684542465
C     -3.4856795427     0.2350996317     -0.9104274421
C     -2.4832500848     0.8446656057     -1.7527262138
C     -2.1441434588     2.1950114834     -1.3996561119
C     -3.7705571097     -1.6513151936     0.5109295797
C     -2.86616349     1.7905520068     0.9049786669
C     -3.5643978448     0.672576652     0.4757343856
C     -3.4863132496     -0.5233431009     1.2833070714


