52

 C     3.354006112     -1.3115350841     -1.6148309089
C     3.6774123862     0.1274720563     -1.5390632293
C     2.7252175997     1.0412566392     -2.0059853955
C     2.0255716799     -1.6816328575     -1.7979729064
C     -2.035083886     -2.2969142028     -0.7229363276
C     -0.7286068557     -2.1240805101     -1.1330876409
C     -0.3680042042     -1.0679988531     -2.1297954564
C     1.0282606687     -0.765727658     -2.3264890999
C     1.4201571544     0.583571787     -2.5211361025
C     2.4487722118     2.2126631865     -1.22980981
C     -1.3573247551     -0.0484364774     -2.3106725058
C     0.4363830526     1.6083949582     -2.2540143941
C     1.0703824224     2.5823346675     -1.4108549367
C     2.75372062     2.2493787065     0.1638328337
C     3.6089957272     1.2545962382     0.6789941636
C     4.2336348233     0.3436593263     -0.2220336884
C     1.4967277943     2.6050956575     0.8414484277
C     3.1337473243     0.4507043328     1.8564340788
C     1.8806320987     0.7290673301     2.396358772
C     1.1009684757     1.8900693449     1.9599994999
C     -0.9148222363     2.6184884024     0.0202713914
C     0.4691251909     2.8847541682     -0.1756693263
C     -0.3008187268     1.6085980287     2.1664806126
C     -1.3188854978     2.1260870183     1.3185674057
C     -3.62133713     0.6193122233     -1.5957700192
C     -3.04773863     1.7734234262     -0.9070676652
C     -1.6958479857     2.1163505161     -1.1222864441
C     -4.2385674774     -1.4831630821     -0.5944170076
C     -3.1104181811     -1.6244385902     -1.4090838779
C     -2.7389187716     -0.3557278856     -2.0717398188
C     -0.9282410284     1.3323414279     -2.1021865349
C     4.2866179817     -0.9596332578     0.4345709857
C     3.5070436641     -0.9097369541     1.6685495179
C     3.8421485169     -1.9706757087     -0.3898916246
C     2.4872415611     -1.9120431997     1.5642180213
C     2.7073889155     -2.5863777809     0.2739675831
C     0.9228737943     -0.334384017     2.5808865918
C     1.1514400167     -1.6199021652     1.9912709745
C     -1.3475593937     -1.7883137976     1.5817545851
C     0.0193973639     -2.1406065364     1.2223767229
C     0.2940367086     -2.4397770208     -0.1537130747
C     1.6313236817     -2.5081208729     -0.6114942205
C     -2.3855602589     -2.2218353633     0.7082556535
C     -0.4041550874     0.2370319998     2.5743721515
C     -2.7728462422     0.1814404388     2.0704141666
C     -1.5611913607     -0.5436010764     2.307958453
C     -3.5593294198     1.6753510251     0.4410827724
C     -2.6135657374     1.5354111562     1.4635528162
C     -4.6018035072     -0.0790931136     -0.7092485048
C     -4.4614533744     0.515470046     0.5174687958
C     -3.8902157271     -0.4505553382     1.4835213202
C     -3.7109020716     -1.6780327045     0.7746522241


