52

 C     -3.5720679077     0.5943592641     1.0996811254
C     -3.2531270617     1.9221996888     0.8413946589
C     -2.1654895167     2.5048688772     1.4838252234
C     -1.2623152645     1.7180161063     2.2585307221
C     -1.4913972935     0.3068306984     2.4464521818
C     -2.7286731679     -0.2242110323     1.9052829236
C     -0.0283812943     3.0890554008     0.7708279451
C     -1.3734257326     3.2153234199     0.4669502327
C     -0.4786515628     -1.9437574329     2.1583658238
C     -0.3087636612     -0.5736060764     2.5295789525
C     1.0523569138     -0.0057480381     2.4807925053
C     1.2335866797     1.421169017     2.1360271755
C     0.0764199179     2.1852415956     1.9297921971
C     2.4138246065     1.8534951481     1.3958626976
C     -1.8756830185     2.8226846092     -0.8325131491
C     -3.0507065788     2.069869505     -0.6320096242
C     -0.9107958465     2.3612911951     -1.7909693397
C     0.4868413914     2.5805748398     -1.5714686011
C     2.2374190279     2.5349631326     0.136320071
C     0.9607989607     2.9722354102     -0.2794656236
C     -1.0844003493     1.0841800779     -2.4295865832
C     -2.199448131     0.250769527     -2.1272566276
C     -3.2211610181     0.7809813295     -1.2189978843
C     -1.9612979751     -1.1542731118     -2.1254369549
C     2.4894837784     1.1540754248     -1.9269190543
C     1.2106673745     1.5237192649     -2.2831161432
C     0.2538089043     0.5274794931     -2.674227082
C     0.5498063714     -0.845950797     -2.5295486886
C     -0.5992004727     -1.7116628558     -2.3649129428
C     4.0302960497     1.0491692116     -0.1589783387
C     3.1269716562     1.8703093602     -0.8084125138
C     -2.5974729387     -2.0072215981     -1.165527021
C     -3.3155871921     -1.4159334142     -0.0778509297
C     -3.7348672671     -0.0925324124     -0.1955934165
C     -1.7062273391     -3.0915191615     -0.8955866362
C     -2.7399965463     -1.5452688679     1.2783459611
C     -1.6887691909     -2.4097154986     1.4957742436
C     -1.2845185079     -3.2947775206     0.4118847809
C     2.8581443325     -0.2422982327     -1.8170962979
C     1.8587441282     -1.2527201771     -1.9606007124
C     -0.4849506462     -2.924460274     -1.6915358579
C     0.1600844322     -3.4536796987     0.4538186831
C     3.8381026241     -0.2896539712     -0.7326394665
C     3.6171133287     -1.1821413838     0.3057769378
C     2.6146295702     -2.168021233     0.2206642746
C     1.8582505595     -2.3653661706     -0.9924614385
C     0.670737338     -3.1435785301     -0.8404948783
C     3.3352332767     -0.3542387996     1.5198568071
C     3.5520189106     0.9817955197     1.2287872243
C     0.617450879     -2.6956186878     1.5640747422
C     1.8736547167     -2.1239202755     1.4789178419
C     2.1408797521     -0.8627718653     2.1256498736


