52

 C     -0.2674599295     -2.4484832405     -1.6968043533
C     0.6863045182     -0.2628997254     -2.4691100493
C     0.8166979847     -1.6716696509     -2.2940120814
C     -1.8481518348     -0.6033561259     -2.1215797302
C     -1.5847017576     -1.969018047     -1.5999060506
C     -2.381975023     -2.5169523945     -0.4998926993
C     -3.064557224     0.020642837     -1.6841242493
C     -3.7724611713     -0.5313120418     -0.5292914721
C     -3.4433113013     -1.7108352324     0.0489978123
C     -0.6848894471     0.262393872     -2.4695606768
C     -0.8153848828     1.6712143748     -2.294822638
C     3.0654937708     -0.0209734991     -1.6823028793
C     2.3822419699     2.5168205585     -0.4990427207
C     1.5856226277     1.9686938136     -1.5994079428
C     1.8493911321     0.6029561751     -2.1206751314
C     0.3269965136     -3.2697488587     -0.6269371912
C     -1.6956546455     -3.0663136958     0.6241734002
C     -0.3262831013     -3.2696566481     0.6276089392
C     2.3825241631     -2.5163162444     0.5004204876
C     1.5851301065     -1.9683393471     1.600298638
C     1.6963047083     -3.0660487359     -0.6235423239
C     0.2679783659     -2.4480822296     1.6972900105
C     0.6848327602     0.2630435901     2.4694990535
C     1.8483087645     -0.6025538491     2.1217176257
C     3.064555102     0.0216373453     1.6841054524
C     0.8150075074     1.6718488812     2.2944890365
C     2.0309202627     2.2172998357     1.7893524383
C     3.1126403924     1.4321976306     1.4891016372
C     -3.1135096085     -1.4319040461     1.4876340023
C     -2.0319525911     -2.2169589183     1.7886382328
C     -0.8163580007     -1.6713740571     2.2943314189
C     -3.0654837561     -0.0213083278     1.6823200949
C     -1.8495064836     0.6029692136     2.1205413835
C     -0.6862495414     -0.2625446359     2.469187661
C     3.7726444849     -0.5303971507     0.5294109132
C     3.4436679207     -1.7100792283     -0.0486485241
C     3.1138099753     -1.4315184454     -1.4873265187
C     2.0324190377     -2.2168602998     -1.7881619356
C     3.44325513     1.7108136588     0.0506344903
C     3.7728344936     0.5311991244     -0.5272274285
C     0.3259171256     3.2698048292     0.6271275098
C     1.6952753434     3.0664005235     0.6245108088
C     -0.3266353801     3.2695852259     -0.6277939159
C     -2.3827906399     2.5164390636     0.4985149752
C     -1.5860577575     1.9686952565     1.5990226918
C     -0.26896447     2.4484347955     1.6966482987
C     -1.6959620976     3.0659395095     -0.6251531106
C     -3.4436271378     1.7100760559     -0.0509708579
C     -3.772873095     0.5304733577     0.5271013212
C     -2.0314138468     2.216508023     -1.7898305514
C     -3.1129605023     1.4312365508     -1.4894004315
C     0.2684210653     2.4481605739     -1.6971428698


