52

 C     3.8951290205     1.5898991788     0.0008534458
C     0.820824569     2.7667151272     1.1775260218
C     2.1605855822     2.8837172686     0.7614177344
C     3.1181454776     1.9972134273     1.1952989266
C     3.4626186371     -0.2843353422     1.2700280119
C     4.0417836651     0.2409305509     0.0008472303
C     2.989862822     -1.5551148442     1.2693029288
C     -1.9132760664     2.2889643361     1.1843085573
C     -1.0940431776     1.4060209387     1.9697778229
C     0.3519340533     1.6585151433     1.9736434712
C     1.3197570243     0.5859638361     2.2395742756
C     2.6966656084     0.8030192127     1.8915234344
C     -0.6484054536     -1.0454260771     2.1263495067
C     0.8018756217     -0.8074954544     2.2619487865
C     1.6886198184     -1.8615642812     1.8859313358
C     1.2059624984     -3.0311474663     1.1818624764
C     3.0733148433     -2.3224909439     0.0000444545
C     2.9900182323     -1.5543474788     -1.2687884494
C     3.4616444736     -0.2840250453     -1.2686683521
C     2.0553892699     -3.221156793     -0.0004874606
C     2.1599685181     2.8863967992     -0.7615890748
C     3.1158013183     1.9965288381     -1.1940188517
C     2.6950264964     0.8042534794     -1.8901991476
C     1.6871136595     -1.8601686897     -1.8855186174
C     -0.6485868463     -1.0438653005     -2.1271271137
C     0.7993672063     -0.8055430444     -2.2622451096
C     1.3175685279     0.5881198698     -2.2381270594
C     -3.0094355987     -0.2167695148     -1.8714819516
C     -1.6343225323     0.0583948797     -2.2021517673
C     -1.0954383364     1.4075166118     -1.9678401575
C     0.3507734209     1.6604316758     -1.9723868578
C     0.8205693376     2.7694310654     -1.1764378468
C     -0.1031154547     -3.0436724534     -0.7614911776
C     1.2054079509     -3.0283767107     -1.1842383235
C     -1.0601818185     -2.2220158131     -1.4039981003
C     -1.2864899312     2.8551218084     0.0016218514
C     0.0325904221     3.0912379744     0.0014089609
C     -3.8441943631     0.7897797936     -1.2108857441
C     -3.2082165935     1.9226299115     -0.7628479138
C     -1.9156865591     2.2921745981     -1.1833858505
C     -3.8437195065     0.7889294672     1.208951571
C     -3.2075748523     1.9202934986     0.7622308351
C     -4.1615405344     -1.1379659613     -0.0011851981
C     -4.4617510062     0.177472722     -0.0012420059
C     -2.3302811944     -2.2626529041     -0.7631849533
C     -3.3615021452     -1.4741562115     -1.19743174
C     -3.008035339     -0.2191724308     1.8706004545
C     -1.6329631378     0.0556188067     2.2030259256
C     -3.3591294468     -1.4732170576     1.1961571327
C     -2.3293905134     -2.2645594484     0.7625480395
C     -1.0595844964     -2.2225594932     1.4022113887
C     -0.1014531713     -3.0434820594     0.7579742441


