52

 C     4.8257513972     -0.6451976214     -0.4008288308
C     3.864849781     -1.564354378     -0.9414534519
C     1.0188448258     -2.0716186407     -1.0348956878
C     1.5988903234     -1.0561022896     -1.9438650911
C     3.0000895805     -0.8376830074     -1.9321286291
C     -2.6269682544     -1.5682800468     -1.6715869586
C     -1.2432834418     -1.3865564144     -1.7801651334
C     4.6512804903     0.5844885392     -1.0355645457
C     0.7146560894     0.0904529827     -2.1366768548
C     3.5117175697     0.496184564     -1.9796185104
C     4.3675643473     1.5909457978     -0.0694659588
C     1.24286223     1.3868691045     -1.7799074531
C     2.6266146245     1.5685676746     -1.6715437313
C     3.1663232123     2.2061422572     -0.4318753591
C     -3.0004288111     0.8380852365     -1.9313861319
C     -1.5992831014     1.0565002211     -1.9432677845
C     0.3619469046     2.1259217747     -0.8577133929
C     -0.7150912548     -0.090038267     -2.1365338042
C     -3.5121746552     -0.4957458603     -1.9792415562
C     4.1649521411     0.9077711933     1.2557265869
C     4.5118526466     -0.4624193478     1.0586457559
C     3.5789208197     -1.4501876708     1.3964814527
C     2.8540539755     1.2329331501     1.6987814633
C     -1.3073463196     1.9722977919     1.3893616551
C     0.047645229     1.7309982958     1.5481441337
C     0.5036190688     0.5237063575     2.211501457
C     1.9318833049     0.2323698912     2.2046912312
C     2.3398396517     -1.1368336412     2.0058317069
C     0.9116732202     2.2489541532     0.5009754838
C     2.2796770647     2.1677055112     0.6915439101
C     -3.2140813106     2.1811983679     0.1305678605
C     -1.8309290649     2.415383429     0.1213620282
C     -1.0190356361     2.0717651561     -1.0341128147
C     -3.8650987407     1.5645582043     -0.9403028124
C     1.8308591622     -2.4152983928     0.1203376512
C     3.2142064882     -2.1811101584     0.12927359
C     -0.3621607306     -2.1257428375     -0.8581289323
C     -2.2796582104     -2.1677002767     0.6912157885
C     -0.9115352468     -2.2489979857     0.5004979367
C     -3.1664309803     -2.2062791567     -0.4319905942
C     -2.3393311466     1.1361860594     2.0066365884
C     -1.9314448169     -0.2330405173     2.2050437631
C     -0.5032429047     -0.5244694909     2.2116419853
C     -0.047376552     -1.7314911295     1.5476066053
C     1.3076387395     -1.9728699668     1.3885270336
C     -2.8538020936     -1.2334199012     1.6989239588
C     -4.367343338     -1.590549765     -0.0692002819
C     -3.578512788     1.4498430472     1.3973981196
C     -4.511604447     0.4623273195     1.0595623387
C     -4.1647264961     -0.9079100767     1.2562006767
C     -4.8260555614     0.6457188296     -0.4000162128
C     -4.6512869849     -0.5839980685     -1.0350002476


