52

 C     -3.309149393     -1.2931016796     1.145532222
C     -2.9721901566     -0.178019119     1.9863006712
C     -2.3756865853     -2.3104290478     1.0219779334
C     -2.3611025403     -2.0414226422     -1.4556212317
C     -2.0149358429     -2.8118990616     -0.3208624973
C     -1.1261221342     -2.2474570268     1.7980633539
C     -0.6770439374     -1.0122417589     2.3952692977
C     -1.6703240374     0.0264685266     2.4788723364
C     -1.2995987761     1.4352196144     2.2365628019
C     0.0540085608     1.7878642189     2.0728379591
C     0.3128391408     2.8563234916     1.1308451331
C     2.4314497066     1.1247781774     1.8897575138
C     3.4178763911     0.1398702138     1.5966843957
C     1.7072438404     -1.6236832956     1.8287028045
C     0.7481954815     -0.6558640921     2.3551835179
C     1.1145022328     0.7706214918     2.2902497617
C     3.0170292762     -1.2127266114     1.4392065469
C     -0.1693068019     -3.0364182786     1.1174664049
C     1.1766692637     -2.740325808     1.0762566651
C     -0.6933961339     -3.2710243497     -0.2512236895
C     -2.3609121503     2.0415085999     1.4557893042
C     -0.6932477049     3.2710420039     0.2512755952
C     -2.0148026594     2.8119589944     0.3210072604
C     1.1767091225     2.7402707819     -1.0763296221
C     -0.1692697426     3.0364059049     -1.1174597571
C     2.6245535814     2.1587477732     0.836800481
C     1.5517092169     2.823677215     0.3559624049
C     3.5495445638     1.6004944197     -0.1301750499
C     -3.9225201957     0.7323042643     0.0610787742
C     -3.3091881151     1.2932253492     -1.145299151
C     -3.3868614063     1.0519366593     1.3003349071
C     -2.3756701376     2.310508218     -1.0218087663
C     -2.972328318     0.1781265713     -1.9860899277
C     -1.1261635009     2.247480636     -1.7979686121
C     3.0169860153     1.212634522     -1.439458448
C     1.7071763019     1.6236229619     -1.8288291386
C     0.7480560904     0.6558319027     -2.3552399018
C     -0.677180375     1.0122549402     -2.39522414
C     -1.6705006825     -0.0264108005     -2.4787531673
C     -3.3869932506     -1.051816797     -1.300091083
C     -3.922553297     -0.7321553113     -0.0607963028
C     3.417736793     -0.1399760026     -1.5969092311
C     2.4313001085     -1.1248856402     -1.8899679391
C     1.1143052762     -0.7706597275     -2.2902993187
C     4.2735208608     0.5410354717     0.453800045
C     4.2734598704     -0.541142991     -0.4541053623
C     1.5515769696     -2.8237314639     -0.3560618368
C     2.624427524     -2.1588373021     -0.8370111361
C     3.5495111068     -1.60059747     0.1299062229
C     -1.2998192792     -1.4351756444     -2.2364502962
C     0.0537965208     -1.7878579497     -2.0728224206
C     0.3126533377     -2.8563430522     -1.1308562868


