52

 C     1.5381449596     3.1149611567     -0.5600132331
C     2.3859274696     2.2238423445     -1.3104437037
C     0.2068843833     3.1907608905     -0.9221250681
C     0.8298815731     2.5704066     1.7433221316
C     1.845946237     2.9365778085     0.8310227406
C     -0.8295477059     3.2412370581     0.0863850807
C     -0.5673356649     2.7087594676     1.3982234517
C     -0.2989435259     2.3739097607     -2.0518561092
C     0.4528050131     1.2454861309     -2.5326916064
C     1.8615122261     1.2571477611     -2.1939418386
C     2.5777589023     0.0064319792     -1.9361117814
C     1.9632885948     -1.1847920145     -2.1946153848
C     -1.6749466692     2.2630844677     -1.8977324703
C     -0.2474468456     -0.0236406933     -2.7125665723
C     0.5670625788     -1.2181506556     -2.682264204
C     -3.0211319924     2.1472745246     -0.0129247788
C     -2.0377716266     2.8848117154     -0.5902898308
C     -1.015861327     0.6144239877     2.6793875555
C     -1.5444807612     1.753566431     1.9723830887
C     -2.8063645039     1.5466828949     1.2922305303
C     3.2667797303     -0.7806993908     0.2993593119
C     2.6549990429     -2.0736742952     0.0046604871
C     3.3809529229     0.1794871808     -0.7126476641
C     2.1530773454     -2.3250221994     -1.2884515207
C     1.0021141219     -3.1456558595     -1.4347649064
C     1.8696556025     -2.4762967588     1.1583867224
C     0.6821132236     -3.2183321793     0.9949939441
C     0.3097404562     -3.6279869911     -0.3326218177
C     -2.3868026284     1.0450314526     -2.0375024947
C     -1.6736914689     -0.1602895505     -2.3586646
C     0.0289264448     -2.4447768916     -2.2950962209
C     2.9396513844     1.9719686183     0.9236350077
C     2.6045745524     0.9943633797     1.9131366576
C     3.2849367299     1.5640460795     -0.3684795169
C     2.8388901268     -0.3634974172     1.6331709961
C     1.9116736836     -1.3710434543     2.1103871041
C     1.3184298957     1.4003649942     2.4815673914
C     0.4146456692     0.4380104001     2.8883269495
C     0.7398314701     -0.9767663831     2.7650085018
C     -1.6378717036     -2.8964680473     0.7035023099
C     -0.5355858848     -2.7859301805     1.6740529703
C     -0.5012943962     -1.6836292188     2.5293734815
C     -2.6498276379     -1.9308083381     0.6677828058
C     -1.113571789     -3.3437489037     -0.524878649
C     -3.3858563322     1.0625644612     -0.9797207049
C     -3.6180152077     -0.0579431905     -0.2431094598
C     -3.0322595209     -1.3198136422     -0.5829656673
C     -2.1446978787     -1.415950735     -1.7198696143
C     -1.2734466864     -2.5481151811     -1.7088311963
C     -1.5786180251     -0.7029342582     2.5342530953
C     -2.7095803916     -0.8950902753     1.7132774173
C     -3.3452741665     0.2358451593     1.1873308819


