52

 C     1.5581654146     2.0651765303     -1.7311012896
C     2.5849703933     1.1498598319     -1.8890003712
C     3.6553838051     1.1442782209     -0.9193206791
C     0.4880333291     -1.9377550627     -2.1375260724
C     2.2332381813     -0.2259425797     -2.2244187283
C     0.8741557292     -0.5970412803     -2.49136746
C     -0.1905676133     0.4239306699     -2.503457809
C     -1.6201261093     0.059236089     -2.2909458811
C     0.2114948595     1.7416425347     -2.1611632938
C     -2.532037764     1.0905178703     -1.9230651169
C     3.1274392321     -1.0737264864     -1.4269313801
C     3.9843213126     -0.2711924151     -0.6296288557
C     2.5756377486     -2.2368184848     -0.8348858605
C     1.365065767     -2.7173347344     -1.3403823881
C     2.4792373711     -2.305552038     0.6372533314
C     3.056793048     -1.3094820473     1.398883314
C     4.0257964525     -0.4159175348     0.776947456
C     1.1338702369     -2.7606360343     0.9552126508
C     0.2878306674     -2.011806169     1.8681598842
C     -1.0942085069     -2.1864557118     1.7363260607
C     0.5627937782     -3.263801187     -0.2398291745
C     3.8443494925     0.8956965711     1.3417946296
C     0.7887817014     -0.7101401725     2.3593239127
C     2.1736215046     -0.4820571857     2.2611795226
C     2.6763452268     0.8602215465     2.1337581529
C     2.330366859     2.5374667265     0.5754660224
C     3.5777768705     1.8562807454     0.2792592327
C     1.4450001104     2.8254575032     -0.474308507
C     0.0646634933     2.9767838257     -0.1962817829
C     -1.8868864719     2.3467711154     1.1071335649
C     -0.4883219192     2.5438834387     1.0525522901
C     -2.0509746346     -1.1540090153     2.1429024404
C     -1.5838086217     0.2034487248     2.3290621778
C     -0.1503384716     0.4409837154     2.3711451006
C     0.3698298938     1.7276928246     1.9093122213
C     1.7649570164     1.9144611322     1.7602678084
C     -2.4686632267     1.2705396973     1.8561716596
C     -2.0141809073     2.3213833748     -1.3671610704
C     -0.6771634493     2.575915242     -1.4027559478
C     -3.8288764587     1.7696346248     -0.0259713048
C     -2.703301496     2.555406578     -0.0935932062
C     -4.0099632199     -0.327774454     0.8663327335
C     -3.7517059152     0.9836546573     1.2189984231
C     -3.2285267167     -1.3729443079     1.3780534159
C     -0.7868107915     -3.0962490316     -0.5270040636
C     -2.8696572882     -2.249578191     0.2697470115
C     -1.6471166251     -2.8505704785     0.5546901921
C     -3.7450936737     0.810097619     -1.1360688382
C     -3.9886241958     -0.4575771284     -0.6501798957
C     -3.093930331     -1.5255532365     -0.9525122182
C     -1.9462211382     -1.3187875115     -1.853148856
C     -0.8828239493     -2.2317089314     -1.7179431579


