52

 C     -2.5751758814     -1.5958221372     -1.4157191133
C     -1.3664465351     -2.1280955191     -2.0054794049
C     -2.9240797367     -1.9603513444     -0.0981370829
C     -0.5962772509     -3.1025225878     -1.329581712
C     0.8539133963     -2.9561237036     -1.2759145248
C     -0.6932021962     -1.0142211004     -2.6652798056
C     0.693053953     -0.9356088858     -2.6784212221
C     1.4904156835     -1.9393907037     -1.9899974938
C     -2.863521358     2.0709345502     -0.9608173154
C     -3.3327808275     0.7262867535     -0.9690113744
C     -2.694869163     -0.1896827426     -1.8093860296
C     -0.8708956409     1.4625233835     -2.3087280998
C     -1.6246262378     2.4283467845     -1.5427327176
C     -1.4938069252     0.1899627806     -2.5169411565
C     -3.5356481416     0.3587349803     0.457792113
C     -3.1889119734     -0.8858348271     0.874398036
C     -2.8905212144     2.5667738334     0.4236222377
C     0.4620391055     3.2022867055     -0.4465584382
C     -0.9173927905     3.2270908067     -0.5140759968
C     -1.6315157532     3.1817093246     0.7122741416
C     1.3648695496     0.3464860115     -2.5495958437
C     0.6070960807     1.5325451625     -2.3177816027
C     1.256352589     2.5362475111     -1.495066803
C     -3.09095945     1.4879901944     1.265968494
C     -2.2091985745     -1.0498624923     1.9926496272
C     -1.6544628828     -2.3005020062     1.8441759552
C     -2.1331510919     -2.9215242654     0.5739147884
C     -1.0401530226     -3.5173501877     -0.0265545337
C     0.1044690172     -3.3845241333     0.890555674
C     2.2658167871     -2.3763047959     0.6749046522
C     1.2671219183     -3.1675350136     0.1166663091
C     2.8185284358     -0.4923206174     1.8933804321
C     1.9719428095     -1.5974236393     1.8984730412
C     -1.9051649546     1.3587444185     2.1301631214
C     -1.3839390849     0.0832564436     2.4238148847
C     0.9584890156     1.0526489021     2.3818804981
C     0.0767493468     -0.109001494     2.5695152492
C     0.6191617748     -1.4570295869     2.3626735343
C     -0.2502216908     -2.5406322726     1.985369404
C     2.3600583752     0.8212117864     2.1337700702
C     -1.018780489     2.4662771717     1.8084676601
C     0.3859043847     2.313632073     1.8621098762
C     3.1030543662     1.6549998279     1.1830724315
C     2.447765192     2.6212179285     0.4874231746
C     1.1146854214     3.0060531007     0.8152487137
C     2.6600506822     0.108023049     -1.922031935
C     3.2558909695     1.1139915134     -1.135847721
C     2.5359524032     2.3333259151     -0.9744090071
C     3.6346746697     -0.5166330401     0.6453514851
C     3.1350670579     -1.5897804264     -0.1711764284
C     2.6777854833     -1.2839396924     -1.4741904291
C     3.7647743989     0.7607063028     0.1857901864


