52

 C     -1.1558108414     2.8532761931     0.1232533446
C     -2.3075103691     2.4225674931     0.7227630044
C     1.4036574829     -0.4862090238     -2.7697317852
C     0.4940066559     0.6210059726     -2.7789258636
C     -0.8460540686     2.5496765707     -1.276039919
C     -1.6222064031     1.5452665404     -1.9309604803
C     0.5763952175     2.6289829748     -1.4058257536
C     1.2418235711     1.7448233196     -2.2418676655
C     2.6377605688     2.000459288     1.5559321346
C     2.4460161128     2.5358373696     0.2360912346
C     1.1659265922     2.9523461872     -0.0954887323
C     -4.1781836641     0.9800187628     0.5686779504
C     -3.3451420752     1.8872161187     -0.1362373642
C     -2.940839166     1.3306967219     -1.4167774311
C     -0.8877717876     0.4268166553     -2.537863883
C     -4.3377024569     -0.1767016532     -0.2497894196
C     -3.5074243809     0.0252423733     -1.4379695316
C     -1.3597865133     -0.9509631167     -2.2767143517
C     -2.6436474076     -1.1065997254     -1.7088954644
C     -2.8505951694     -1.9960429743     -0.5588697013
C     -3.6617927658     -1.2434362263     0.3895305677
C     -1.8032641691     -2.7049533718     -0.0669698671
C     -0.6214144665     -2.9124466693     -0.9031931583
C     1.0175208275     -1.7754314146     -2.2717740385
C     -0.3575747303     -2.0147964676     -1.9968720855
C     -1.3477572369     -2.5230274338     1.330098766
C     -1.753483698     -1.3094984367     2.0078537193
C     -3.0351999115     -0.8005505237     1.6290955203
C     -3.3148971977     0.5929904219     1.6843623754
C     -0.9436803454     1.0466966721     2.2876927829
C     -2.2127192656     1.5028708974     1.8639485112
C     0.6826403834     -0.8683924564     2.5092545249
C     -0.7070285146     -0.3991017301     2.4620260517
C     1.7624849886     0.0654946618     2.5830132679
C     1.5191093614     1.4994865094     2.2807492045
C     0.2078891757     1.9223232986     1.9667671275
C     0.0903574119     2.8170564726     0.8503567491
C     -0.0165392482     -2.9044745172     1.3293970786
C     1.0179583891     -2.1499078119     1.9229146066
C     0.421395023     -3.2639035874     -0.0347018355
C     2.0916514405     -2.1935750148     -1.3887361772
C     1.7610641617     -2.8578958116     -0.2022896908
C     3.0409041657     -0.2623912287     2.0589958642
C     3.5728740739     0.9218377445     1.4398872102
C     3.1932846483     -1.3351195464     1.1127571643
C     2.2148400128     -2.3043594111     1.0851593839
C     3.1096451545     -1.1254825767     -1.3603697137
C     3.8914885861     0.6733063422     0.0933727781
C     3.7063798422     -0.7456430843     -0.1585053621
C     3.209651012     1.6876578961     -0.7082287428
C     2.6015440294     1.2795457467     -1.8950483581
C     2.6797669639     -0.1026353908     -2.2852745469


