52

 C     4.5034667121     -0.1467481404     -0.044125836
C     3.8242248074     -1.3725313354     -0.3978354075
C     -0.1549980289     -2.8757809853     -0.3194430713
C     1.2341872123     -2.5906455317     -0.4858158269
C     3.0758585498     0.2427643267     -1.8893183687
C     3.9539371197     0.8488459471     -0.887780836
C     1.9504135176     0.9481210366     -2.3160293464
C     1.6664997839     -1.8052908005     -1.639052067
C     2.9419794827     -1.1629357692     -1.5488516347
C     0.7449223021     0.2453675552     -2.6849241867
C     0.5894862689     -1.1362793829     -2.4040626721
C     1.5260721689     2.1476639288     -1.6149583377
C     2.1667652346     2.5147661154     -0.4249549046
C     3.4172472901     1.9326076475     -0.1063825811
C     0.0872453774     2.2138418528     -1.6920647062
C     -0.7006892478     2.6213549436     -0.5765209153
C     -2.087451799     2.4139029949     -0.6840704408
C     -3.8293069277     0.9029147743     -0.9358188271
C     -2.6354260534     1.4805359428     -1.6062451468
C     -0.3964050868     1.1284536295     -2.4857252934
C     -1.9243041642     -0.7609850419     -2.3495053975
C     -1.742543223     0.6580203867     -2.3632962797
C     -1.0829690756     -2.6344665962     -1.3370470081
C     -0.7718744325     -1.6043170124     -2.2988255005
C     3.3798576223     1.4659750318     1.261798253
C     4.0563559856     0.1980584632     1.308062195
C     3.3066377051     -0.8700056801     1.8165236865
C     2.0569510955     1.6618267084     1.7654860126
C     -2.2121255376     1.7830830273     1.7089235299
C     -0.789268469     1.7604531354     1.7657130626
C     -0.1208185769     0.6257067048     2.3693597076
C     1.3258923473     0.5771643691     2.3657473372
C     1.9936246754     -0.7196495975     2.3474197588
C     -0.0471767945     2.5173580723     0.75052167
C     1.336117726     2.4836044535     0.7939223329
C     -2.8872191469     2.2746588166     0.537836196
C     1.9490686836     -2.4445150057     0.7377269473
C     3.2432482023     -1.9172104915     0.7622533205
C     -2.9941423094     0.6589760935     2.1406252712
C     -2.3062548468     -0.5974039843     2.2825678651
C     -0.9006202135     -0.6206519102     2.4066038238
C     -0.2131268541     -1.8023342635     1.8862886657
C     1.2026926492     -1.7988548076     1.8241508609
C     -0.8686773946     -2.6065994464     0.9239496787
C     -4.0919408201     1.5635178789     0.3089444106
C     -4.2032419782     0.5460375671     1.3439866304
C     -2.9669612104     -1.3380338519     -1.4542700346
C     -4.0224686862     -0.6972936914     0.6999461858
C     -3.8782688099     -0.5046604004     -0.7494940496
C     -3.0046559534     -1.515353059     1.3830913417
C     -2.2806746589     -2.4225962141     0.6254635519
C     -2.4191722206     -2.4704384046     -0.8204936196


