52

 C     -0.3272727747     1.1905144372     -2.5078107104
C     1.8971355729     1.7597280682     -1.8123938812
C     1.0214210631     0.8007708033     -2.447594359
C     1.3492462913     -0.633801694     -2.3899297763
C     0.2340103077     -1.6148480164     -2.2314831254
C     2.6345460226     -0.9700010857     -1.8790319219
C     0.4943955415     -2.7505879284     -1.4117109444
C     -0.8175015151     2.3336832309     -1.7914599903
C     -0.0486231143     2.8645351904     -0.7025512433
C     1.3403772988     2.6571884009     -0.8084336417
C     2.196176886     2.5573768979     0.3668803509
C     1.5724285778     2.2612910487     1.5854469093
C     -2.2260862996     2.148058348     -1.6382746241
C     -2.8681794508     2.3597382569     -0.4425351084
C     -2.0854918672     2.6504569614     0.7493652843
C     -0.6738665128     2.9079387987     0.6410302571
C     0.1464443822     2.4277196544     1.7129086478
C     -1.1742295291     -1.1839568332     -2.355559843
C     -1.4267450433     0.2095881438     -2.6202079857
C     -2.6016421813     0.8301698832     -2.1835277595
C     3.875147392     0.7926865067     0.756602745
C     3.0302976745     0.2638556862     1.8196773089
C     3.3827074343     1.8458455896     -0.0040316625
C     1.9496059216     1.0200335782     2.2668335168
C     0.7198977982     0.3785999567     2.6881644424
C     2.7880357376     -1.1466671834     1.5462528263
C     1.54296254     -1.7585613874     1.8055151983
C     0.4587668067     -1.0009828041     2.4583173668
C     -1.6716075347     0.9657347647     2.499112557
C     -0.3378164038     1.3539890628     2.5532501051
C     -2.0040271418     -0.4582934694     2.3549561268
C     -0.9604587261     -1.4323210817     2.3040861019
C     -1.2438497231     -2.6023056271     1.5091759781
C     -2.5626292835     1.7470365236     1.7360916797
C     3.4927252332     -1.4252814892     0.2774997715
C     4.1574857505     -0.3043565751     -0.1675694053
C     -0.1519148728     -3.235409968     0.7941265604
C     1.1481595447     -2.8177001243     0.8729594133
C     3.5895592187     0.049112574     -1.4821908577
C     3.2005662593     1.3802387613     -1.4095418956
C     1.6492548982     -2.7405695319     -0.5324967677
C     2.7318101355     -1.9933416032     -0.8345949643
C     -3.1789004078     -0.5277552734     1.5024402548
C     -3.2340500374     -1.5196857597     0.4961140315
C     -2.3444608019     -2.5971903427     0.6128931198
C     -3.5310470853     0.8180857935     1.1256975918
C     -3.2789303763     -1.1211417791     -0.933174866
C     -3.5092755748     0.2128760701     -1.2556343764
C     -3.7382220299     1.1801871112     -0.189840095
C     -0.5470851069     -3.3382649256     -0.6406989852
C     -1.8437963878     -2.9289958091     -0.7438011458
C     -2.2154545066     -1.8650098102     -1.6193282095


