52

 C     -2.8052298276     -0.6857792554     1.7635490234
C     -2.7352945699     0.7208418872     2.1363138554
C     -1.6335516477     -2.6800770009     1.0426901357
C     -1.6586300779     -1.5163378732     1.9038847809
C     0.8530312363     -1.6328477163     2.0621434422
C     -0.3716008429     -0.9141352173     2.3099702534
C     -0.2661948075     0.5612615707     2.4056903468
C     -1.4249513236     1.3410315622     2.2556100286
C     2.0967217583     -0.9562553977     2.1483052992
C     -0.3752489767     -3.2594943609     0.685211872
C     0.8219580628     -2.7889669719     1.1538569346
C     -3.5986275118     1.5111376755     1.3817703109
C     -2.7541405422     2.546296813     0.7914203973
C     -0.4122183388     2.7772540546     -0.8211040736
C     0.7279480936     2.437538902     -1.5881226824
C     -1.440238636     2.5043509059     1.3925831828
C     -0.2703852423     2.7862257551     0.6346569876
C     1.98834019     2.5761337041     -1.023625279
C     1.0011421239     2.3769650585     1.2044877559
C     3.3872934847     1.852583019     0.6309299396
C     2.1750255235     2.5802426564     0.3904175412
C     2.1890383724     0.4702335671     2.2592683765
C     1.0031527802     1.239033315     2.1318215889
C     3.4273420032     0.8674849849     1.594095206
C     -4.0554061583     0.6262815709     0.3076314787
C     -3.6154232511     1.1624099083     -0.8956607202
C     -2.8231185656     2.3876827228     -0.6000022617
C     -1.64873429     2.3488717226     -1.3799624427
C     -3.2729696647     -1.5911203939     -0.4654576433
C     -2.7640088347     -0.992885091     -1.7193278116
C     -3.6629440669     -0.7431677338     0.5993956889
C     -2.8556480006     0.3920492432     -1.8546751394
C     -1.6498862053     1.122044698     -2.1735168047
C     -0.4275978267     0.4476839413     -2.522213991
C     0.7484350191     1.2124334618     -2.3909080218
C     -2.4143179114     -2.6511067956     -0.1548804098
C     -1.4958230844     -2.871777171     -1.2899625018
C     -0.2971969462     -3.3280153257     -0.8118667769
C     -0.3344673981     -1.0191292461     -2.4419602416
C     -1.5532213676     -1.7076208185     -2.1177762297
C     0.9294113855     -2.7613424997     -1.2090476118
C     0.9704963025     -1.6024571773     -2.0567452465
C     2.0741438753     0.62465184     -2.3024110336
C     2.1928216734     -0.7695203276     -1.9834822821
C     3.2580003232     -1.1331275066     -1.0496781549
C     3.836977935     1.2243059193     -0.6717822687
C     2.9008178858     1.5818119611     -1.6201212559
C     4.0834034569     -0.1453022353     -0.4316050531
C     4.0608585447     -0.330728253     1.0356536398
C     1.7559536872     -2.7591829617     -0.0089426178
C     2.8968069782     -2.0440790927     0.0478664263
C     3.2379552209     -1.3944059977     1.315604063


