52

 C     1.5786855343     2.5414184067     -1.5878883862
C     0.1810644624     2.7507767627     -1.547849439
C     -0.0728475155     0.4601413314     -2.4952363289
C     -0.67857043     1.766635534     -2.1018322035
C     -2.057339633     1.8267725552     -1.6645465692
C     -0.9461608055     -0.6385428176     -2.5241645103
C     -2.366372582     -0.5476158599     -2.1688529964
C     -2.8931760161     0.6243939415     -1.6372517019
C     1.3825443706     0.1995673141     -2.3341064505
C     1.8672410368     -1.1347878185     -1.9255832191
C     2.1983314387     1.3437103773     -2.023539398
C     3.1156939471     -1.2281835518     -1.1719155932
C     -0.1318479931     3.3616656601     -0.2537631381
C     -2.415420872     2.6282368376     -0.5595462603
C     -1.4101690119     3.2361618239     0.257222622
C     -3.6378501778     0.6007948122     -0.3806364176
C     -3.3061179237     1.8135495876     0.2886077937
C     -3.6378360947     -0.6011771219     0.3808577169
C     -3.3061838515     -1.8140091949     -0.2884446705
C     -2.7263221953     -1.7945031348     -1.5578663058
C     -1.554322025     2.6662364067     1.5675611551
C     -2.7263150351     1.7942716044     1.5581436437
C     -2.8929884321     -0.6247281083     1.6374018398
C     -2.3661976014     0.5472444833     2.1688896462
C     -0.4720124963     1.979329721     2.1511126082
C     0.8791879007     2.1983234763     1.7081357482
C     1.0208185421     3.1034290324     0.5901478203
C     2.1298581107     2.9268753966     -0.2883884232
C     3.1555582074     2.0725009419     0.022053487
C     1.3830504152     -0.1995947665     2.334201812
C     1.8674767156     1.1352102531     1.9255227227
C     3.1157328399     1.2286804899     1.1719419246
C     2.198978861     -1.3432241148     2.0234876016
C     3.37307225     -1.1975885612     1.1749332347
C     3.7838681048     0.0194129048     0.751934494
C     -0.0724410187     -0.4601749232     2.4953324836
C     -0.6780580416     -1.766993811     2.1017044698
C     -0.9457966863     0.6382443177     2.5241339702
C     -2.0570467486     -1.8271682693     1.6645065342
C     3.7839830973     -0.0188891926     -0.7521864172
C     3.3721499433     1.1979849945     -1.1746243804
C     0.181582576     -2.7509184046     1.5479531375
C     1.5791512973     -2.5408820272     1.5873383819
C     -1.4098757045     -3.2364473982     -0.2572174576
C     -2.4151013909     -2.6285135279     0.55967762
C     -0.1314951491     -3.3620594276     0.2537396317
C     -1.5542032998     -2.6664392828     -1.5672764791
C     3.1562180834     -2.0722753077     -0.0224354177
C     2.1298549409     -2.9257982582     0.2883129604
C     1.0209180741     -3.1034457281     -0.5903058687
C     0.8790688013     -2.198212998     -1.7081717137
C     -0.4720108191     -1.9793753603     -2.1511953137


