52

 C     1.607510938     2.7995910363     -0.6636793559
C     2.6511735167     2.062351049     -1.0699350372
C     3.5722517432     1.6138145679     -0.0431254117
C     0.3450622851     2.7526556114     -1.3946997378
C     4.2740713343     0.4895935649     -0.5116159146
C     3.3989356845     -0.029300716     -1.5907162098
C     3.0211555521     -1.3626228994     -1.2943745672
C     -2.3874986624     2.0954180094     -1.3944862144
C     -1.4624537181     1.1702758971     -2.0186282092
C     -0.0378907215     1.5437907441     -2.0537926438
C     1.030817294     0.5172979419     -2.216873683
C     2.3873545166     0.9081391707     -1.9573965295
C     -0.7405563171     -1.2980150963     -2.0919067923
C     0.6836137656     -0.9016174863     -2.1395231414
C     1.7107755148     -1.8136436232     -1.6147928555
C     1.261462984     -2.9014248347     -0.777172096
C     4.2740235779     -0.4897583228     0.5123428264
C     3.5721737406     -1.6139228206     0.0436843082
C     1.6072930542     -2.799649277     0.6639320878
C     2.6509507842     -2.0624619388     1.0703621178
C     3.3986651279     0.0291988374     1.5912748147
C     3.0209909241     1.3625286329     1.2948656431
C     1.7105813888     1.8135722979     1.6150920191
C     2.3870160344     -0.9082148014     1.9578009381
C     -0.0382946052     -1.543795753     2.0537763273
C     1.0304415671     -0.5173501775     2.2170263382
C     0.6832928342     0.901577059     2.1396339262
C     -2.3878169697     -2.0953323543     1.3940893909
C     -1.4628277436     -1.1702234163     2.0183852431
C     -1.8243395159     0.2725166842     2.0648789619
C     -0.740840409     1.2980375989     2.091785499
C     -1.0450406718     2.6203319103     1.5876358857
C     -0.5651582938     -3.4543943236     0.565530143
C     0.3447129135     -2.7526769436     1.394743844
C     -1.8874008434     -3.1578121884     0.5691806792
C     -0.0394037189     3.3030696435     0.8298275428
C     1.2614542922     2.9013670119     0.7773842142
C     -1.8871638308     3.1578835587     -0.5694924319
C     -0.5649205708     3.454403866     -0.5656277967
C     -3.2392667158     1.9081953264     0.8196551525
C     -2.2660891039     2.8461493613     0.8509991303
C     -3.1041800589     0.6606656405     1.5231203533
C     -3.4946282793     -1.5704518608     0.6246745231
C     -3.849030862     -0.2744593647     0.6987324774
C     -2.2660846058     -2.846072406     -0.8513648707
C     -3.2392175294     -1.9080640178     -0.8201788696
C     -3.4944471866     1.5705914267     -0.6252412872
C     -3.8489062768     0.2746182659     -0.6993609167
C     -3.1039634765     -0.6605415566     -1.5236229376
C     -1.8240186341     -0.2724529473     -2.0651758766
C     -1.0448995011     -2.6202901164     -1.5878082096
C     -0.0394125457     -3.3030654714     -0.8298327912


