52

 C     4.0572719242     0.5867974471     0.2295994566
C     3.5339215977     0.996438774     -1.0095335125
C     2.5969393768     2.3687955989     0.6163483536
C     3.3212756735     1.3050883524     1.2484716855
C     1.3997090022     2.7581567439     1.2004317243
C     0.3856847392     3.2779495009     0.3650529107
C     1.092393506     1.0894243572     -2.4257023201
C     1.4348481857     2.2110913285     -1.5892555559
C     2.6420136321     2.1256940762     -0.8264497176
C     0.3201748539     2.9390542868     -1.0138183066
C     0.7020088117     1.8767801002     2.1449745816
C     1.2166248203     0.597089346     2.4170628674
C     2.6021352472     0.3575785405     2.0149173753
C     3.0278054006     -0.986197827     1.5550101287
C     2.0971649283     -2.0172282217     1.5877769802
C     -0.7483656357     2.1077005051     1.9796376836
C     -1.7169134169     1.0619328576     2.1522241175
C     -1.2102318678     -0.2899963568     2.424617183
C     0.2562009011     -0.5405604766     2.5077480988
C     0.750388338     -1.8168865605     2.158844814
C     -3.3084253591     -1.1489399224     1.3726641429
C     -2.0525332376     -1.3692943836     2.0025451754
C     -2.9553925342     1.2406903099     1.4199257149
C     -3.8014421846     0.1206503741     1.1075258899
C     -0.9122015718     3.0670488387     0.960573788
C     1.9810727195     -2.8744949617     0.4444023593
C     -1.446967564     -2.4976589082     1.3104245232
C     -0.1116906338     -2.7628916436     1.4676610769
C     0.6052477819     -3.2495960591     0.333860913
C     2.4352885327     -2.4105361129     -0.833049821
C     3.3602476564     -1.3643519098     -0.8688268522
C     3.8344133222     -0.8197931181     0.3831189403
C     1.2376996812     -2.3874769213     -1.693906141
C     3.0992979638     -0.1917360721     -1.732492128
C     1.9057981257     -0.1228752288     -2.4284910335
C     0.9857462545     -1.2636434941     -2.4664695732
C     -2.0835027248     -2.6348934002     0.0058884126
C     -1.2328530094     -2.5584989664     -1.1552754641
C     0.1118631124     -2.9898437972     -0.9809141894
C     -3.2782060843     -1.8914023839     0.0757835155
C     -3.7046650344     -1.017528038     -0.9298316174
C     -2.6890569969     -0.6392183202     -1.9124298772
C     -1.4982310102     -1.4271447594     -2.0814279276
C     -0.3576173917     -0.7545226845     -2.5959239995
C     -4.2307445901     0.1722596218     -0.3050175752
C     -1.8499762467     2.8433208037     -0.0832936779
C     -3.5239990015     1.2464196365     -0.8447441051
C     -2.9485937191     2.0638165409     0.2053790628
C     -0.2726259234     0.702506224     -2.5887082099
C     -2.6156185559     0.7987914932     -1.9020454651
C     -1.3821890252     1.4897989902     -2.1188860173
C     -1.0611527697     2.6223658802     -1.3059883881


