52

 C     -3.6717364853     1.8912754601     -0.2601867839
C     -2.4630325327     2.5004541535     -0.4945188269
C     1.681964535     2.4807401917     -0.7439108769
C     0.3175181236     2.5042289138     -0.6760664893
C     -3.6646673063     1.3120087621     1.1081731771
C     -4.0803293891     -0.0324874449     0.9737143078
C     -3.3436139003     -1.0359947718     1.5972029245
C     -2.4210535413     1.6156012539     1.715873096
C     -1.6560158176     0.5973013493     2.3859950949
C     -2.1744366179     -0.7439322158     2.3542888324
C     0.0976014156     -1.6567717443     2.3065032462
C     -1.2322721235     -1.8317636871     2.0851231568
C     1.8400504251     1.9477000864     1.7099620699
C     0.4521969288     1.8876556285     1.7850448707
C     -0.1988180304     0.776378208     2.4787429567
C     0.6228715154     -0.3544022915     2.7029592555
C     -0.3190067289     2.5037531012     0.6770816906
C     -1.6834468898     2.4794337306     0.7449130946
C     2.4615424461     2.5017153623     0.4955324259
C     -3.3476083145     -1.5695662286     -0.6930647967
C     -4.1179184484     -0.3541317437     -0.4928395443
C     -2.3514155017     -1.5928335605     -1.6914430987
C     -1.6810577006     -2.5366514409     0.875604604
C     -2.971223759     -2.0631580638     0.597607201
C     -1.1087420592     -2.2866519989     -1.4686124897
C     -0.7192661906     -2.7426995613     -0.1718087788
C     -2.03576773     -0.3593401375     -2.4391991911
C     -2.6859003442     0.8317141886     -2.1162976001
C     -3.8339553416     0.799460411     -1.2121990951
C     -0.6226512211     -0.3536761815     -2.7030842004
C     -1.8412059037     1.9473125648     -1.709191934
C     -0.4533311977     1.8881197859     -1.7842871984
C     0.1983612926     0.7774960949     -2.4784211886
C     1.2333672639     -1.8301924434     -2.0858805617
C     -0.0966121012     -1.6559097734     -2.3071802712
C     2.1748743145     -0.7416872061     -2.3546122882
C     1.6556684039     0.5992462708     -2.3857367389
C     2.4201004936     1.6177651708     -1.7152448238
C     1.6825675117     -2.535295498     -0.876638543
C     1.1101071934     -2.2865746425     1.467680754
C     0.7209044692     -2.7423377086     0.1706931609
C     2.9724539208     -2.0611450341     -0.5984427669
C     3.3442081206     -1.0333356925     -1.5975918068
C     4.0803774723     -0.0296619997     -0.9737471744
C     3.6638646812     1.3146437386     -1.1076214448
C     2.3523651608     -1.5921091013     1.6907954067
C     4.1180992012     -0.3518650916     0.4926820542
C     3.3485446675     -1.5678465826     0.6924329841
C     3.8335121306     0.8012585226     1.2125391537
C     2.685396312     0.8324638283     2.1166222677
C     2.0359893141     -0.3591104003     2.4390882458
C     3.6706078631     1.8933554683     0.260942481


