52

 C     3.8499260005     -0.0601119829     -0.2026017924
C     3.3897391163     0.1396807888     -1.5336571383
C     3.4380053007     -1.2456394122     0.4745823661
C     2.4068312234     0.1105976911     2.2658594189
C     2.6684424973     -1.1446161356     1.7229363188
C     2.7757669456     -2.2475835328     -0.2909288442
C     2.1934336544     -1.9840406904     -1.5596140584
C     2.4532168393     -0.7263484397     -2.1489702372
C     1.7470045422     -2.8870380448     0.5161363543
C     -0.6309972345     -3.2058903744     0.2955435594
C     0.6303294681     -3.2060411137     -0.2957878408
C     1.5835698664     -2.1420463112     1.6994506668
C     -0.8322922674     -2.5366708448     1.5752933193
C     0.2497152342     -1.84526393     2.1795636612
C     -1.0532552778     0.4685665201     -2.6554651474
C     1.3225163391     0.0710409552     -2.6288392297
C     0.0071477063     -0.4713691871     -2.6871580419
C     0.8317400333     -2.5367296391     -1.5755029367
C     -1.5840242412     -2.141587788     -1.6996025336
C     -0.2500997056     -1.8450615568     -2.1797389539
C     -2.6686962343     -1.1439092064     -1.723002428
C     -2.4068401165     0.1112993323     -2.2658322725
C     -1.7476188611     -2.8866529536     -0.5163810938
C     -0.8026224387     1.8360509266     -2.1994446499
C     0.4876155621     2.2433881082     -1.7506543264
C     1.5599459997     1.4517707072     -2.2560885802
C     2.8425729555     1.5136697389     -1.6372584209
C     3.0229237292     2.1875651197     -0.4525600568
C     -1.9472434296     2.3110094395     -1.5531728457
C     0.6002715374     2.8626903216     -0.4242224342
C     1.8854797693     2.7895300382     0.2175783155
C     -3.6916762734     1.2237585716     -0.4685828708
C     -3.0027716305     1.2850828098     -1.6536451403
C     3.0031156636     1.2842859611     1.6537760475
C     3.6919229335     1.2229637069     0.4686588104
C     -1.8849267492     2.7899803269     -0.2172992773
C     -0.5996455597     2.8628021447     0.4244008591
C     1.9477809155     2.3104789978     1.5534062604
C     -3.0225120869     2.1881452875     0.4527140422
C     -2.8422411807     1.5141831277     1.6373746283
C     -1.5596016395     1.4519268829     2.2562075698
C     -0.487139574     2.2433658251     1.7507837016
C     0.803028029     1.8357051064     2.1995859323
C     -3.4382580482     -1.2448545416     -0.4746762174
C     -3.3896839755     0.1402968846     1.5336621625
C     -3.8499552611     -0.0593191129     0.2026224367
C     -2.4533804283     -0.7259928835     2.1488969689
C     -2.1938542373     -1.9836952886     1.5594203866
C     -2.7762759004     -2.2470540897     0.2907506541
C     1.0533486709     0.4681694209     2.6554910299
C     -1.3224899773     0.0711082407     2.6288104421
C     -0.0072482038     -0.4715959224     2.6871314561


