52

 C     2.4181155933     -2.2654404256     -0.659898347
C     3.631175393     -0.2943502961     0.1438061855
C     3.120558338     -1.6228279966     0.359788235
C     2.8018067913     1.7668146137     0.9957707555
C     3.3521570002     0.5001064417     1.3660679662
C     1.6716732058     2.2427373038     1.703864926
C     2.5720446893     -1.6396666023     1.6986447575
C     2.7327989067     -0.3056432577     2.3006480833
C     0.993347504     1.371645111     2.649655926
C     1.4853891523     0.0751080307     2.8885046919
C     1.2811444715     -2.0946179923     1.957367542
C     0.5778056016     -2.8598632197     0.9495731758
C     1.2057315489     -3.0101511317     -0.3409929803
C     -0.8363777251     -2.8211035536     1.0169913112
C     -1.5202543781     -1.9329633815     1.9397690974
C     -0.8133651418     -0.8827623604     2.6547969485
C     0.5810828522     -1.0485253728     2.7411993301
C     -1.6562465006     -2.8988912141     -0.203989258
C     -1.0288410606     -2.7807320111     -1.4500888367
C     0.3883998318     -2.9774663268     -1.5103701728
C     -2.8362589191     -2.1661050707     0.0085135041
C     -3.3747133253     -0.410056168     1.440955953
C     -2.8078834739     -1.6660107305     1.3980352351
C     -0.4375681071     1.5806185311     2.5396137033
C     -1.3746799897     0.4949808108     2.652640831
C     -2.6647682739     0.7091112463     2.049869906
C     0.9638794869     -2.092780967     -2.4631582657
C     2.1876933358     -1.5709103109     -1.920859328
C     -0.0859112437     -1.2400388853     -2.9273783532
C     0.1853699079     0.1026273603     -3.1146158542
C     1.5011960308     0.632273341     -2.7421061011
C     2.4700120463     -0.1742054542     -2.0445569757
C     3.2103183022     0.4631042965     -0.9521269725
C     -3.2171164231     -1.0894469557     -0.8244724373
C     -2.3630646673     -0.7081914137     -1.9358217972
C     -1.3581487324     -1.6544214629     -2.3047262096
C     1.2779312735     1.9677851694     -2.3271285692
C     1.8278862995     2.5217436361     -1.1211612347
C     2.8138593101     1.8089349387     -0.4496028626
C     -0.1252692798     2.2648398896     -2.3797256551
C     -3.7629974276     -0.0641151709     0.0721236367
C     -3.3948953936     1.2456307164     -0.1022091248
C     -2.5659937394     1.6944754396     -1.1830830404
C     -2.0611382553     0.7358798349     -2.1444585446
C     -0.8310289591     1.094006637     -2.7802020402
C     -0.6481004887     2.6598121897     1.600817648
C     -1.8177316518     2.6800691756     0.8309142116
C     -2.8566290179     1.798434718     1.1651892956
C     -0.4756920398     2.9959630759     -1.2131101721
C     0.7315883964     3.1527189978     -0.3867975934
C     0.643919673     2.9762996344     0.99576047
C     -1.7122107279     2.7355365924     -0.6382425996


