52

 C     2.697550812     -2.100867475     -0.7799177782
C     3.186688089     -0.8535731757     -0.6702224234
C     2.7949555669     0.1897529116     -1.5808335973
C     1.5908477512     -2.374112312     -1.7030329162
C     0.8324209352     -1.2411862402     -2.1963237147
C     1.2523497044     2.5144759032     -1.644126559
C     -1.5471064975     2.2767746474     -1.5639405553
C     -0.8119814559     1.197088925     -2.1756966318
C     0.6592147964     1.3034828984     -2.1804535702
C     1.4669465328     0.0871815746     -2.1770933492
C     2.4344960123     -2.8122693231     0.4653494746
C     1.5038494022     -3.7814558569     0.2120471803
C     -0.4285920492     -3.5521215108     -1.0475287718
C     0.9565675069     -3.5270998737     -1.1431410749
C     -0.6426701515     -1.3258765665     -2.1732003568
C     -1.2179712486     -2.5191434263     -1.5836734428
C     -1.4644766007     -0.110486942     -2.1887780028
C     1.9605558191     -1.9480590811     1.5911649659
C     2.3570828933     -0.6079786246     1.6732751137
C     3.3345758493     -0.1986473959     0.6683753225
C     3.59654781     1.1270952183     0.4254984752
C     2.915410419     2.130433536     1.157184844
C     0.6382195314     -2.3686250293     1.9434071157
C     -0.3871896865     -1.3933348396     2.1756297601
C     -0.0112565457     0.018190433     2.3274432673
C     1.405395913     0.3963711742     2.1724556905
C     1.7480566688     1.7673956213     1.950082637
C     -2.4099369481     0.6562706601     1.964886652
C     -1.0460181012     1.0566619245     2.1856476126
C     0.3791133856     -3.5507913302     1.128810665
C     -1.7370142526     -1.7234934184     1.6892126707
C     -2.6956648457     -0.7062243842     1.6210353192
C     1.2282684723     3.5277462705     0.4931963579
C     2.5515356679     3.1826361283     0.2468186916
C     -2.7813886306     2.5185891981     0.4425394947
C     -1.5051047028     3.008014306     0.6834610079
C     -0.6526852744     2.3861491533     1.6886998675
C     0.7154045273     2.7159020275     1.6071462133
C     -3.3345865782     1.4778739716     1.1787819078
C     2.5929665699     2.5551970776     -1.0921744652
C     3.3201710194     1.387955995     -1.0382236501
C     -0.8677399632     3.1260651571     -0.6308557877
C     0.4870706616     3.3276179848     -0.7343790009
C     -4.0511603768     0.6101598839     0.2465717269
C     -0.8024068039     -3.6490845839     0.4132275479
C     -1.8524053109     -2.762920225     0.6632885869
C     -3.6526185129     -0.6767928334     0.4888736583
C     -3.147715652     -1.2704687727     -0.7565857081
C     -2.3236769758     -2.3386538741     -0.6478835999
C     -2.8515434692     2.1090797195     -1.0121291817
C     -3.5500998356     0.9384209937     -1.1211383034
C     -2.8332618476     -0.1993162001     -1.6627893858


