52

 C     -3.5310656208     0.6916177128     0.9844934235
C     -3.9177729592     -0.1601637208     -0.0611681926
C     -3.5464251691     -1.4865201556     -0.0161199911
C     -2.6842280548     -2.0086192336     1.013819581
C     -2.0758660067     -1.093894885     1.9719795279
C     -2.6024742849     0.2534576345     1.9933496075
C     -1.9501035389     -2.7230600024     -1.1265112638
C     -2.9181213205     -1.7953523248     -1.3298655984
C     0.0984531546     -0.1534131095     2.7645250933
C     -0.6549586298     -1.2907279063     2.3318946096
C     -1.8287159719     -2.9485128846     0.3497194561
C     -3.3339815967     0.4378488186     -1.2997390237
C     -2.7986306906     1.7130650738     -0.9861803723
C     -1.556087214     2.1164816305     -1.5735547934
C     -0.7921523657     1.1222441777     -2.3615369565
C     0.6056917959     1.3655774994     -2.5375139997
C     1.2182238828     2.5354342549     -1.9952045539
C     -1.2447511756     -0.2745687338     -2.4313819143
C     -0.2540086728     -1.3592184596     -2.3423344793
C     -2.6014247472     -0.545536132     -2.0016883285
C     -0.6433994916     -2.5625519681     -1.6569647011
C     0.5346244842     3.3455309729     -1.0867104595
C     -0.8288579293     3.1174298297     -0.8203808396
C     -0.9808245901     3.1326722333     0.6351590661
C     -2.018277181     2.4347475144     1.2315197572
C     -3.0538613425     1.939612839     0.416081507
C     0.3696447859     3.077786266     1.2084352431
C     -1.7265972896     1.3862292376     2.235264508
C     -0.423134039     1.1871145283     2.6324531816
C     0.651020349     2.0661163072     2.1609728264
C     1.8515994609     1.2909608505     2.0752991271
C     3.4781466163     0.3073634888     0.5145303134
C     2.7807226748     1.4740878786     0.9871983129
C     3.3351492223     -0.942068801     1.2160031084
C     1.2905265406     3.3082293654     0.1701437991
C     2.4648687577     2.1113669074     -1.3759204525
C     2.4562616417     2.4882109125     0.0021929882
C     2.2522566     -1.1592713192     2.1366080325
C     1.5192753506     -0.0577866417     2.5530281977
C     3.381911943     -2.0405266709     0.3078167224
C     2.7655297816     0.7905020176     -1.783980762
C     3.2781052086     -1.4544710532     -1.0206369454
C     3.4763401808     -0.0279965806     -0.9052356444
C     0.2329088167     -3.1451994569     -0.6602294306
C     1.5791786874     -2.9696882126     -0.6946281949
C     2.1178693969     -1.949314411     -1.6368155221
C     1.1861363287     -1.0613975889     -2.3352848084
C     1.5880290258     0.2790323809     -2.4941258039
C     1.5372768726     -2.3577100018     1.7103422104
C     0.1275198343     -2.4007643682     1.7437830823
C     -0.4979031839     -3.1212300831     0.6372868855
C     2.2863216723     -2.8831856274     0.5498328635


