52

 C     -3.9624292479     0.6737454407     0.2577610623
C     -3.5642633057     1.5184215787     -0.7866078663
C     -2.9961468797     0.6718321578     -1.8731757792
C     0.3871873555     -1.8082365569     -2.1466324946
C     -0.7838595009     -1.0304786825     -2.2698964127
C     -2.641784949     2.5095424765     -0.5472556474
C     -0.5865967841     0.4115682754     -2.4662770799
C     -1.7472825414     1.2305455022     -2.3009180256
C     -1.6232549871     2.4903845806     -1.6187875249
C     -3.1701530996     0.6759632162     1.4998781157
C     -2.996056343     -0.6720655478     1.8732286184
C     -0.6306894394     3.1236274652     0.3456792981
C     -1.9296387801     2.6287129981     0.6952352911
C     -2.042411004     1.5681480894     1.6668640644
C     0.427674781     2.9168731845     1.1872435311
C     0.3870913381     1.8082694824     2.1466163587
C     -0.7838987024     1.0304203304     2.2699034399
C     1.7296418482     2.9473757979     0.6323848933
C     3.13008874     1.86242464     -0.8408893528
C     1.9533132289     2.6420842287     -0.7738700018
C     1.7237591211     -1.259435274     -2.2181642488
C     1.9377226486     0.1589002747     -2.2057576103
C     0.7474593499     1.0136901724     -2.2427024438
C     0.8141881257     2.3168816235     -1.5721448143
C     -0.4146094592     2.9046291831     -1.1099665893
C     3.1520885677     0.6427236353     -1.5323890703
C     -3.5641334826     -1.5187113073     0.7866664538
C     -2.6415878022     -2.509755264     0.5472991574
C     -1.6230337286     -2.4905072999     1.6188128835
C     -0.4143714994     -2.9046568939     1.1099681603
C     -0.5865206285     -0.4116095433     2.4662888793
C     -1.7471444631     -1.2306772098     2.3009510534
C     1.7237079993     1.2595706625     2.2181398742
C     1.9377780033     -0.1587488553     2.2057257719
C     0.7475812663     -1.0136330938     2.2426947761
C     0.8143946121     -2.3168086473     1.5721315194
C     1.9535257114     -2.6419366343     0.7738440001
C     -3.9623778498     -0.6740614717     -0.2576924792
C     -0.6304524094     -3.1236636692     -0.3456623081
C     -1.9294490898     -2.628862378     -0.6952095241
C     -2.0423241921     -1.5683099182     -1.6668267574
C     -3.1701358432     -0.6762145223     -1.4998239865
C     0.4278724811     -2.9168431912     -1.1872528775
C     1.7298458126     -2.9472381345     -0.6324149807
C     3.1521688163     -0.642480727     1.5323416573
C     3.1302357995     -1.8621770528     0.8408264269
C     3.5709543955     1.5942111024     0.568430274
C     2.5821689929     2.1257217407     1.4181696696
C     3.9353947669     0.2809746103     0.674717126
C     2.5823034149     -2.1255307487     -1.4182187886
C     3.5710475219     -1.5939335092     -0.5684846552
C     3.9354113135     -0.2806763169     -0.674791037


