52

 C     -2.4868255671     1.1283510447     -1.9672683247
C     -3.1868144411     -0.0589937256     -1.726586282
C     -4.009619885     -0.1267796998     -0.5294278857
C     -1.0649466268     1.0775762444     -2.3366745284
C     -2.5002497792     -1.3371378128     -1.8250246585
C     -1.1028787715     -1.3872502844     -2.071836975
C     -0.3611820493     -0.1481260192     -2.4149501351
C     3.1428294708     1.0700811282     -1.4486741793
C     1.7860196104     1.1436082866     -1.9282666944
C     1.0995224079     -0.0788063414     -2.3501605673
C     1.7905009114     -1.3070908493     -2.0822786158
C     -4.0180687927     -1.45022391     -0.0379127839
C     -3.1044194966     -2.214194088     -0.8091034523
C     -2.2452207705     -2.9152435131     0.0888704563
C     -0.8914564575     -3.0020387555     -0.1554957841
C     1.0519640605     -2.3218660755     -1.3592924754
C     -0.3274656284     -2.4136192074     -1.3566539008
C     -3.4457724706     -1.3733846001     1.3202307268
C     -3.1643121268     0.001559842     1.6415944034
C     -2.4348271086     -2.3139923557     1.4350732673
C     -1.8880465323     0.3660633554     2.2000887025
C     -1.4851978049     1.7320523885     1.9758833234
C     -3.7397034983     0.8084471215     0.5410013113
C     -2.184703023     2.5898310231     1.1096287437
C     -3.1802263526     2.0408914807     0.2127885416
C     0.1383697754     2.9562081337     0.8223121121
C     -1.1627528805     3.2480811438     0.3044192822
C     3.3351931202     0.5241039514     1.7595050122
C     2.276513768     1.4848849903     1.7895287502
C     -1.1396013511     -1.9740278864     1.9323348129
C     -0.8119853602     -0.6546607065     2.3469955352
C     1.6429950061     -1.2588639294     1.9366922257
C     0.6290104863     -0.29368036     2.3513390924
C     0.9805558375     1.1119128861     2.2290193433
C     -0.0457228332     2.0485778974     1.8916722807
C     3.0120549387     -0.847311917     1.7331811545
C     -2.6931368554     2.2589454702     -1.1261790037
C     -1.4215975276     2.9507403218     -1.0213257967
C     2.4003608014     2.2955230248     0.5755217844
C     1.2494631039     2.7504703723     -0.0614052412
C     0.9451374626     2.2270280511     -1.4096641198
C     -0.4052521116     2.2459448897     -1.8002712615
C     3.452390592     1.7099006421     -0.2022008083
C     4.2226056175     0.8195253736     0.6263277036
C     4.528141404     -0.3442964897     -0.0618492369
C     -0.1759670119     -2.6594465788     1.0885596304
C     1.1692882563     -2.374182819     1.1086218155
C     3.8250340547     -1.4153274164     0.6083395639
C     3.1500567876     -2.1676037683     -0.363903255
C     1.8525730017     -2.6025491195     -0.1556686291
C     3.8613871544     -0.2010621095     -1.3919268085
C     3.1360054849     -1.3485487252     -1.6354981719


