52

 C     -3.8590549814     -0.7134001376     0.6901572507
C     -3.6860112936     -1.3195999012     -0.5485407637
C     -2.7296959039     -2.3306083189     -0.7065439541
C     -2.9001262127     -0.9822343073     1.7513312036
C     -0.5113889249     -1.616582029     2.1575353601
C     -1.8313185181     -1.9230395219     1.5699154957
C     -1.8430343159     -2.6806797166     0.3261867006
C     1.9188295861     -2.0121986579     1.9110410677
C     0.608086032     -2.4056951417     1.7035990861
C     -1.2665127259     0.6678558801     2.6467937318
C     -2.5689978677     0.2919625099     2.3179822726
C     1.3829826973     1.5755056388     2.1132925283
C     1.1869699932     0.2353314938     2.580023608
C     -0.1958699682     -0.2887762374     2.6580654158
C     2.2660806663     -0.6809423212     2.3265768014
C     0.5773813436     -2.9852793259     0.3446195387
C     -0.5780243491     -2.985181527     -0.3444197206
C     -3.415292849     -0.2807425157     -1.5801317817
C     -3.4912407991     0.9789333575     -0.9382668065
C     -2.4535528715     1.9071750074     -1.1988901851
C     -2.2662124221     -0.6805957868     -2.3265194185
C     0.19580571     -0.2889793655     -2.6580395756
C     -1.1869220402     0.2354285005     -2.5800316386
C     -1.3826510668     1.5756879809     -2.113413539
C     2.5690530586     0.2912786315     -2.3179930956
C     1.2666476894     0.66742032     -2.6468303825
C     -0.6085956887     -2.4056747487     -1.7034369463
C     -1.9192583623     -2.0119083281     -1.9109132416
C     1.8424688731     -2.6810770885     -0.3260155189
C     1.8309133018     -1.923517398     -1.5698001814
C     0.511050565     -1.6168218596     -2.1574319257
C     2.899930114     -0.9829587247     -1.7512723203
C     -3.1618369359     1.3442834199     1.4617641919
C     -2.1561949403     2.3322160736     1.215626998
C     -3.8818514889     0.7412781071     0.4530475948
C     -1.8688837119     2.6999021122     -0.1132332266
C     -0.5103358381     3.0273463173     -0.4754054984
C     -1.0359216399     2.0206762885     2.097716535
C     0.2382077506     2.4018417223     1.764663902
C     0.5109764914     3.0272789941     0.4752199943
C     1.036346738     2.020330253     -2.0978509228
C     -0.2377017251     2.401787789     -1.764811327
C     3.1621086032     1.3435121963     -1.4618373036
C     2.1566896716     2.3316858859     -1.2157652336
C     1.869457334     2.6995130317     0.1130659236
C     3.882024929     0.7404257582     -0.4530971388
C     2.7291977143     -2.3311419759     0.7066859336
C     3.6857296267     -1.3203411026     0.5486149568
C     3.8589251232     -0.7142610875     -0.6901179453
C     2.4539507937     1.9067184022     1.1987717607
C     3.4914488434     0.978238006     0.9382086901
C     3.4152341918     -0.2813765523     1.5801430502


