52

 C     -2.4348579261     -0.7367584315     2.042814796
C     -2.426526585     0.715725163     1.9911224197
C     -3.2619796616     1.3628951512     0.990693143
C     -1.1826988048     1.3490672528     2.341525797
C     -1.2262927259     -1.4705232971     2.2131346834
C     1.2266927304     -1.4706271267     2.2128347668
C     0.0002715294     -0.8385666222     2.569106714
C     0.0003418156     0.5938286566     2.6832049117
C     2.4135626885     -2.5982205983     0.5546368068
C     1.2215886947     -2.6211273419     1.2502653338
C     -0.7209801753     2.5582567979     1.6872301225
C     -1.4321649428     2.9912115239     0.5530558653
C     -2.6947524971     2.4537692475     0.2680794985
C     0.7216044745     2.5582015902     1.6870665691
C     -0.6751004894     3.0163144251     -0.7166083626
C     0.6751883595     3.0162634808     -0.7167682859
C     1.4325480563     2.9910842475     0.5527155877
C     2.6950370638     2.4535614136     0.267436944
C     2.4352767866     -0.7369609293     2.0422350585
C     2.42705984     0.7155233866     1.9905416717
C     1.183370538     1.3489649165     2.3412434694
C     3.2623237691     1.3626345996     0.989912757
C     -2.6996756173     2.0534381174     -1.1533473651
C     -3.4576218376     0.8887605767     -1.2951483882
C     -0.7282646726     -1.4048654285     -2.3552406774
C     -2.8571520846     -0.275130423     -1.9406305445
C     -1.4806965089     -0.2000281286     -2.4303424011
C     0.7276232958     1.0646268101     -2.3364961645
C     -0.7280841466     1.0646901397     -2.3363172644
C     -1.3994747107     2.1694620909     -1.6702247422
C     1.3992531999     2.1693487177     -1.6705558146
C     -3.9581287715     0.5344592888     -0.0031842335
C     -3.9136091562     -0.8712374793     0.0585024818
C     -3.2915004213     -1.395501446     -1.2040970126
C     -1.1746965807     -2.5221339545     -1.5458585892
C     -2.4039585726     -2.4652205538     -0.8840784091
C     -3.2294011905     -1.4830895281     1.0859862532
C     -2.4136460078     -2.5980219081     0.5552103985
C     -1.2215091575     -2.6210219393     1.2505590706
C     -0.0002235728     -2.9880089644     -0.8374613626
C     -0.000055555     -2.9921023948     0.5916708466
C     1.1741186079     -2.5222222116     -1.5461443007
C     3.2910812984     -1.3957711409     -1.2048812821
C     2.4035419698     -2.4654276405     -0.8846528102
C     2.6995777227     2.0532173498     -1.154000752
C     3.4573783169     0.8884690716     -1.2959635941
C     2.8566714351     -0.275361897     -1.9413191084
C     1.4801020654     -0.2001542555     -2.4306920705
C     0.7275800048     -1.4049203718     -2.3554192009
C     3.2295363711     -1.4833541245     1.0852158629
C     3.9135527771     -0.8715638879     0.0575657595
C     3.9581689613     0.5341280099     -0.0041248527


