52

 C     -3.7416075707     0.4754136965     -1.3251305907
C     -1.8418665259     -1.6198582908     -1.7307362723
C     -0.7418761685     -2.501554489     -1.4684670395
C     -0.7513281617     2.3878566399     -1.6228982059
C     -2.0906320439     2.0428609513     -1.7246975692
C     -2.5266509866     0.7287086049     -2.0710802176
C     -0.105557     0.1310929736     -2.3614191393
C     -1.5186931698     -0.2861693146     -2.2612357125
C     0.2849229069     1.4992396689     -2.0565388027
C     -4.2204874669     -0.5039321237     0.7214962796
C     -3.9692112909     -0.7398282814     -0.7123318577
C     -2.9842217337     -1.7934410312     -0.8633038356
C     -2.7486762713     -2.2823953731     0.4840679745
C     -3.3065628122     -1.3076283923     1.3948932866
C     -1.5338141929     -2.8397341115     0.821473133
C     -0.6910832474     -3.1932726013     -0.2314175933
C     -0.6286297491     -2.1725693633     1.8007724939
C     -0.9717695249     -0.8803172644     2.2743539702
C     -2.3433050842     -0.4699904234     2.1115161143
C     -2.7124063725     0.9072262227     1.8485564531
C     -1.6557660711     1.841101374     1.6217159717
C     -1.7988283494     2.7295941797     0.4756553936
C     0.7519819972     2.3872465797     1.6226870788
C     2.0911928943     2.0421177814     1.7245967348
C     1.5186560972     -0.2870075382     2.2611965071
C     0.1057906306     0.1305799329     2.3614598198
C     -0.2845038605     1.49902557     2.0567133446
C     2.5269931513     0.7278596734     2.0709779381
C     0.7412061314     -2.5019356559     1.4678286382
C     1.8412749322     -1.620555428     1.7305367897
C     3.7415525387     0.4743027262     1.3252226187
C     2.9839181771     -1.7945875171     0.8632704719
C     3.9689963476     -0.7411205873     0.7122612388
C     0.6897965388     -3.1933361645     0.2308286735
C     -3.8982362283     0.8783220558     0.9958366798
C     -2.7973530878     2.4376137212     -0.4843891652
C     -3.8159138631     1.529733033     -0.2469856091
C     0.6057653056     3.007892443     0.2976009099
C     -0.6050788151     3.007929883     -0.2976715572
C     3.8168364491     1.5296435828     0.247203564
C     2.7983220657     2.4375108298     0.4843983306
C     3.8978939098     0.877537571     -0.9951449946
C     4.2197043685     -0.5046838202     -0.7207940967
C     1.5330648594     -2.8403968174     -0.8219951067
C     3.3063792675     -1.3084603235     -1.3949499266
C     2.7479388436     -2.2830033541     -0.4843314033
C     1.7996708004     2.7298484272     -0.4756887573
C     1.6564169256     1.8413013309     -1.6216750173
C     2.7126539234     0.9071169656     -1.8479564493
C     2.3433152593     -0.4702146196     -2.1111408007
C     0.9717636651     -0.8801897926     -2.2741348531
C     0.6280616619     -2.1725137403     -1.8010358352


