52

 C     -2.8446866147     -0.3491904322     1.8589682186
C     -3.2014344235     0.8861801453     1.2655614717
C     -3.8319577262     0.884616358     -0.0194972369
C     -1.5282789938     -0.4941380878     2.4885579188
C     -0.6314150397     0.6066205963     2.6076322781
C     0.7348362741     0.2719674826     2.7801332854
C     -3.3432576706     2.0252544387     -0.7220125479
C     -2.3862969814     2.7270364776     0.1154572485
C     -0.0085490736     3.0730852386     0.0227039297
C     -1.2148155904     3.0055675968     -0.6476415059
C     -0.980048421     1.8988074514     1.96670643
C     -2.2670209698     2.035870572     1.3487423828
C     0.0988333074     2.6355287342     1.3908180764
C     -2.6203950309     1.5672374157     -1.8366193727
C     -2.7739737606     0.1256701557     -1.9414569952
C     -1.3082978756     2.1793980746     -1.8638277263
C     -0.1837866214     1.4669198252     -2.3021591467
C     -0.3830000673     0.0260846549     -2.6483862351
C     -1.6526373798     -0.6472757996     -2.3437477143
C     -1.5943017378     -2.0093157528     -1.8232261427
C     2.0731907661     -0.2328223838     -2.5956052182
C     0.782895081     -0.7756239248     -2.7153505983
C     1.1517761559     1.923182136     -1.8349144756
C     3.4117583426     1.0658879641     -1.2292917071
C     2.3020171454     1.1089673871     -2.1134695507
C     1.2218686036     2.7163637167     -0.6498019415
C     -3.6494713542     -0.2923406744     -0.8544482712
C     -2.4745655278     -2.4249222916     -0.8207591172
C     -3.4160952781     -1.5279957403     -0.2228565542
C     0.8372263712     -2.0908900913     -2.0385710659
C     -0.2968020876     -2.6262100767     -1.5300508331
C     -3.1596027978     -1.5592523552     1.1979740294
C     -2.0469020057     -2.4756236102     1.4395036087
C     -1.0488264199     -1.8417482321     2.2299203006
C     -0.3104040239     -3.1245155443     -0.1532026365
C     -1.6647637749     -3.0755756929     0.2439253978
C     2.0924984189     -2.1770463204     -1.3063526531
C     2.0612777166     -2.4022944112     0.1160560209
C     0.7595420807     -2.7429424897     0.7239018002
C     0.3372244887     -2.0710331449     1.9603366846
C     1.2113730232     -1.0886316037     2.5122774702
C     3.0193662059     -1.6493407985     0.9075512918
C     2.5412844809     -1.0175196314     2.0838421463
C     3.7862215676     -0.3743285381     -1.0571769325
C     2.912690211     -1.145102529     -1.8537380411
C     3.8886792817     -0.6567616201     0.2868093309
C     2.2296543911     2.4692154072     0.362906622
C     3.7538986875     0.64007818     1.0156102094
C     3.3503406124     1.6598320794     0.0569691139
C     2.965702864     0.4024079109     2.1112361322
C     1.8044190356     1.1893745264     2.4257155037
C     1.4930021347     2.2812772517     1.6043573174


