52

 C     3.1563719322     -1.575903223     -1.072608234
C     2.1359028588     -2.6456297569     -1.0324263661
C     2.6486901604     -0.4866601729     -1.8700375967
C     2.8125054201     0.8854937113     -1.4232137245
C     3.3630483798     1.1073537324     -0.1109974987
C     1.8136006675     1.8269299629     -1.8873395095
C     1.3996457351     -0.9296554071     -2.4098628999
C     -1.0123357499     -0.5005093512     -2.6678837128
C     0.3329412817     -0.0348973876     -2.7292414493
C     0.5498446836     1.3562984482     -2.5123670708
C     -2.6090251023     -1.834144592     -1.5970048354
C     -1.3245362436     -1.8540130093     -2.133364928
C     1.0812727677     -2.2718753254     -1.8498117946
C     -0.5313574524     -3.1347255811     -0.2033734515
C     -0.2807292062     -2.6262130255     -1.5171470596
C     1.5182893081     2.9803443666     -1.1651019973
C     1.8397837252     3.0234600155     0.2376359225
C     2.6732757935     2.0486510496     0.7705397595
C     0.0659699665     3.2340487615     -1.3049537966
C     -0.4758541033     3.5140560196     -0.076371789
C     -2.0858700798     0.3711915124     -2.3194323671
C     -1.8352929046     1.6973897351     -1.8204644968
C     -0.5286919193     2.2150852528     -2.1276416954
C     0.6099876183     3.306053431     0.9189932835
C     2.2148455212     1.2694753236     1.9199585136
C     2.903257198     0.0254834174     1.8637934945
C     3.7328787221     -0.0280064121     0.7029874904
C     3.6178158121     -1.3448433287     0.2074752308
C     2.7435997527     -2.1381218294     1.1218000408
C     0.5501381659     -3.1143313129     0.7723671319
C     1.872021797     -2.967639761     0.350106874
C     0.8218243654     -1.2489190118     2.4186317211
C     2.2232355433     -1.2405725244     2.0769409556
C     0.0547303061     -2.3331691535     1.8883376464
C     0.1474399035     0.0424182783     2.664782357
C     0.0919954233     2.4552887597     1.8998948816
C     0.8574453469     1.3052927436     2.3587562363
C     -1.2725400578     0.052443838     2.632505109
C     -3.239862903     -0.6749265113     1.5735207398
C     -2.0484460008     -1.1173554202     2.2586264836
C     -1.384106746     -2.2406809136     1.7501723463
C     -1.3493448355     2.3352125272     1.6647861021
C     -3.159810133     0.7883066397     1.4358936996
C     -2.0181685619     1.2207357086     2.147740888
C     -3.1146797357     -0.4525023585     -1.7269047604
C     -3.7612621706     -0.077750231     -0.5803419382
C     -3.379906477     1.1570916403     0.0834744902
C     -2.4779879634     2.0922366915     -0.5495494374
C     -1.6720910796     2.86684268     0.3632143068
C     -1.7773805821     -2.8204578381     0.4761328626
C     -3.6427030554     -1.2214207408     0.3740365895
C     -2.8503550929     -2.2622700677     -0.245692747


