52

 C     -3.2465445566     -0.2294583193     -1.5199199658
C     -2.9795201172     -1.5436543423     -1.2773592549
C     -3.2597992244     -2.0591933886     0.0866563209
C     -2.339384243     -3.0327759302     0.347907678
C     -1.3893446834     -3.1426286599     -0.7529100714
C     1.7808617823     -0.8078368545     -2.2958981004
C     0.7196437408     -1.7280828228     -2.0076359571
C     -2.4345457704     1.9395663777     -1.6531115884
C     -2.2403314748     0.6219469719     -2.1802240259
C     0.182175527     1.1114876594     -2.2939900315
C     -0.9234870538     0.1457631411     -2.423772949
C     -0.6508677325     -1.295906619     -2.2321451815
C     -1.7005675404     -2.1209663617     -1.7089759432
C     1.503056984     0.6124227231     -2.336207442
C     -0.2117068377     -2.8653632031     1.239357113
C     -1.5623476248     -2.6833268958     1.539925579
C     0.9937215244     -2.6968009847     -0.9456818955
C     -0.1008827851     -3.1959774544     -0.2102637051
C     3.0840451278     -0.9866293377     -1.7426545157
C     3.3429773967     -1.902200865     -0.6911713496
C     2.1881372761     -2.5709149889     -0.1739129095
C     2.0561973671     -2.1719179123     1.2151016632
C     0.7694901597     -2.0072112373     1.8028790317
C     -1.0687120093     -0.4041123691     2.3857964589
C     -2.0092658109     -1.420463984     2.0244728923
C     -3.207440537     -1.0901940701     1.2052630022
C     -3.5510011307     0.2003664558     0.9448152286
C     1.3827498085     0.3338849433     2.3715321658
C     0.3668746473     -0.7324399719     2.3799928898
C     0.9251362285     1.6809969639     2.2338454501
C     -0.4898225877     1.9978668047     2.1077623975
C     -1.5007894004     1.0064915835     2.206387939
C     -2.7506762943     1.2980626477     1.5345460728
C     3.1121126302     -1.2372850071     1.461364063
C     2.7246849166     0.0718491955     1.9065410608
C     4.0288740466     -1.2007069266     0.3676849495
C     -3.8829331372     0.5711784869     -0.4448372716
C     -3.4492687527     1.8615976779     -0.6022070467
C     -2.8287662214     2.3724711525     0.6085610765
C     0.7133980867     3.2582400436     0.5824350051
C     -0.5931026678     3.0567571008     1.1111469515
C     -1.6560193967     3.071198944     0.2313516252
C     3.427312288     1.0013768819     0.9990818118
C     2.7669938186     2.1537172313     0.6054920378
C     1.6584667565     2.5865571408     1.402870784
C     4.0690054201     0.1844842943     -0.0193725956
C     2.3563917616     2.3386941262     -0.7897393518
C     2.6316979963     1.3024669486     -1.6886567346
C     3.6133431264     0.3238110616     -1.3515997929
C     -1.3632284194     2.7228378089     -1.1966954779
C     1.0257164392     2.9092811941     -0.7692505523
C     -0.0327388475     2.3906729452     -1.594597538


