52

 C     -4.2839465627     0.5074021396     -0.930802604
C     -4.0061757906     -0.8357823009     -1.1911815096
C     -2.915721703     -1.2002541198     -1.9770017787
C     -3.2466909815     1.4996410895     -1.2530288723
C     -0.7778432195     1.7122528639     -1.6141499625
C     -2.0580430916     1.1126624392     -1.9783710797
C     -1.9618138159     -0.2572353469     -2.4503667753
C     1.6742997061     1.7952775194     -1.7980274437
C     0.4692202808     1.1592746593     -2.1397035419
C     -0.6473370838     2.3794458284     -0.3449759514
C     3.0632157745     2.2570115469     0.0360494321
C     1.7797917305     2.4880568536     -0.4762650598
C     -2.1554925761     -2.272160418     -1.2989021067
C     -0.2116620198     -2.4515526195     0.6996382641
C     0.8144920586     -2.1615457649     1.6471583037
C     -0.8145726399     -2.1620635105     -1.646595924
C     0.211546602     -2.4517783698     -0.6989800073
C     2.1553999189     -2.2719396323     1.2995852906
C     2.9818812385     -0.2959239995     -2.0587027249
C     1.756957593     -1.0150448188     -2.0392441003
C     1.5648925239     -2.099005557     -1.0652324657
C     2.5868709559     -2.2792738119     -0.0621604781
C     0.5426013558     -0.2651984401     -2.415959362
C     -0.6759397009     -0.9379098479     -2.4213067495
C     2.9071310377     1.1458294123     -2.0213980433
C     -3.8266801416     -1.5595566603     0.1356901731
C     -4.0765185327     -0.6498573865     1.1397021265
C     -2.5869851377     -2.2791374156     0.0628004064
C     -2.9818921691     -0.2951635179     2.0587004912
C     -1.756972383     -1.0143388994     2.0395043523
C     -1.5649571703     -2.0986346281     1.0658133476
C     -4.5881512877     0.5916816244     0.505929213
C     -3.860234272     1.628352388     1.0227643149
C     -2.9070919699     1.1464481636     2.0209433353
C     0.6758692588     -0.9371791198     2.4215257656
C     -0.5426274866     -0.2644607673     2.4160530221
C     -1.7795600753     2.4883346259     0.475618831
C     -3.0630364019     2.2569399094     -0.0366648012
C     0.6474902648     2.3794215436     0.3443932787
C     -0.4691942797     1.160046543     2.1395025766
C     -1.6741236483     1.7959465912     1.7975687919
C     1.9618488947     -0.2565586814     2.4503398607
C     2.0581849764     1.113242932     1.9781220215
C     0.7779609836     1.7127287575     1.6136616136
C     3.2468202336     1.4999661469     1.2526941278
C     2.9156698001     -1.1997996383     1.97737106
C     4.0060675655     -0.8355239932     1.1913354278
C     4.2839362285     0.507591755     0.9307874219
C     4.0763789794     -0.6503696698     -1.1396142809
C     3.8265409844     -1.559684174     -0.1352525553
C     3.8604063449     1.6280523411     -1.023297808
C     4.5877988503     0.5913554359     -0.5060768641


