52

 C     0.1600899185     2.9581028716     0.5108875153
C     1.4742942775     2.8915961855     0.9584641421
C     3.2008385113     1.5190788325     1.465992848
C     3.5842077009     0.2196772309     1.492052428
C     1.8633030235     1.8954840051     1.8788420263
C     -1.5573591761     0.1174473794     2.2016449098
C     -2.9298554936     0.4401703259     1.8726572262
C     -0.5229271373     1.1749083064     2.098767611
C     0.8792501849     0.8693342426     2.2770756744
C     1.3273125507     -0.5406484262     2.2998140377
C     2.7062127567     -0.836933727     1.9746623437
C     -2.1157371467     2.4161329652     0.6430731433
C     -0.8730533092     2.3385915077     1.2770084388
C     -3.2148151979     1.6282200768     1.1242080821
C     4.1170206128     -0.1662634956     0.1453705245
C     3.7428501925     -1.4640147105     -0.0712889681
C     3.0221726527     -1.9505437279     1.1400801477
C     2.0330436895     -2.8170106679     0.7315496444
C     0.7245116738     -2.71191639     1.2303741966
C     -1.1058098112     -1.2532808179     2.0543933853
C     0.3136796065     -1.5743104953     2.0250813723
C     -2.0065470892     -2.1343401943     1.3153055507
C     2.8806260245     0.5854710759     -1.8464490742
C     2.4317753795     -0.8015918309     -2.0411184778
C     3.7628797932     0.8974742068     -0.7677050839
C     2.9241662772     -1.8350708111     -1.2164050246
C     1.9768875459     -2.8084679942     -0.7589508019
C     2.3674158999     2.8358641533     -0.2240543516
C     1.5071164675     2.5831586037     -1.3563508094
C     3.4296773788     2.0274152309     0.0694267867
C     1.7435858704     1.4354032309     -2.1277924298
C     0.5921242356     0.5817911969     -2.4943303167
C     0.1503550303     2.8212125876     -0.9285580661
C     -0.9761222431     2.1943889242     -1.5279186704
C     -0.7550252143     0.9448414013     -2.2769922935
C     0.6380006174     -2.8191098774     -1.1326529195
C     0.092621301     -1.7932608304     -2.0116413664
C     1.0276672938     -0.7881242838     -2.4240340494
C     -1.3202490246     -1.4704123585     -1.9429735403
C     -1.7822862861     -0.1097999023     -2.175493553
C     -3.1099459749     0.2669141019     -1.7335358404
C     -3.315439096     1.5259947126     -1.1081558352
C     -2.1661298904     2.3493756243     -0.8007506457
C     -2.1383118785     -2.2602950185     -1.0180772164
C     -3.3926605638     -1.8733374153     -0.5588349724
C     -3.9771201012     -0.6697951897     -0.9737057574
C     -1.4284368136     -2.7885268011     0.1429574925
C     -0.1196783212     -3.0617529401     0.0970956117
C     -3.8522579486     -0.5562761523     1.3076315333
C     -3.3097201647     -1.7949130872     0.9574082586
C     -4.1433292693     1.3509239785     0.0663972052
C     -4.5608493154     0.0110141868     0.1595479277


