52

 C     3.3491294649     -1.6052488444     0.0536948653
C     2.5034622237     -2.6295870638     0.4954329254
C     1.9560655497     -2.2368961642     1.8164398344
C     2.090246808     -1.4413560627     -2.0235867496
C     1.2643637202     -2.5537073081     -1.5902599899
C     3.120202502     -0.9590377243     -1.2042587581
C     1.4451658975     -3.1176306596     -0.2981713002
C     0.2658844945     -3.2131449586     0.5889204351
C     -0.0733789049     -2.3234859818     -2.0736724279
C     -1.1771445654     -2.8041720998     -1.3414990934
C     -0.9943419125     -3.1350038427     0.0858742624
C     0.202072847     -0.3281487618     2.8660240651
C     -0.3573453334     -1.5634827028     2.4043963432
C     0.5888265587     -2.5165434758     1.8520796377
C     2.4881277988     1.3708370628     -1.7791916559
C     1.4051814498     0.8592680066     -2.6410814045
C     3.2247771435     0.49073075     -0.9844101305
C     1.2025636143     -0.5019410679     -2.7220933672
C     -0.1430548215     -1.0242329341     -2.7236483574
C     -1.2785014893     -0.1702857691     -2.5667721483
C     -2.4710865909     -0.7961569451     -2.0309942699
C     -2.3815147264     -2.1145707717     -1.4393742114
C     2.0399646236     2.5870145376     -1.2237132395
C     0.7261237941     2.9041412691     -1.7838498879
C     -0.0442181265     3.4769477408     -0.78232367
C     -1.0680111395     1.270339952     -2.3398131889
C     0.2669421484     1.7651579242     -2.5136899378
C     -1.3585088686     2.9940301579     -0.5261321916
C     -1.9407621204     1.9843098307     -1.3801120599
C     3.2730720336     0.7205981061     0.4521463693
C     3.3448851126     -0.5586009432     1.0656216984
C     1.9994762876     2.8153110554     0.1900259352
C     2.4885382103     1.7765353167     1.0639837853
C     1.6562513111     1.4058089293     2.1841249102
C     1.5815107289     0.0184395944     2.6314137799
C     2.4775584773     -0.9403473698     2.1411061906
C     0.7364465706     3.4489112547     0.4517780787
C     -0.1205476559     2.9835914238     1.4686684685
C     0.3454672788     1.9725120097     2.3437680938
C     -1.873722613     0.884471849     2.3797389626
C     -0.5520804847     0.9065466021     2.7763079195
C     -1.4731299974     2.8605037967     0.9194960311
C     -3.2993945776     1.3306531736     0.6033425994
C     -2.3631595408     1.9328236158     1.4547962859
C     -3.3568745587     -0.0591175287     -1.2193539894
C     -3.058834924     1.2804503729     -0.8056700717
C     -3.04226276     -2.083565748     -0.1283129538
C     -3.7393363739     -0.8694303914     -0.0425947468
C     -2.5263138019     -0.3733957024     2.0447383339
C     -1.7496491909     -1.5889200008     1.9346593676
C     -2.0849463277     -2.4772962366     0.8359630589
C     -3.5141452436     -0.0546072727     1.060047564


