52

 C     -2.3191743354     2.5282276907     0.0969369591
C     -3.4814869039     1.750258781     0.4722968252
C     -1.2648587149     2.596360741     0.9787236699
C     0.0530131693     2.8688688679     0.474666771
C     1.6888558864     2.3746376157     -1.2315338283
C     0.3411651865     2.6032699208     -0.8956971833
C     -3.9160278611     -0.4578630775     0.8292416976
C     -3.1591053616     -1.6769134902     0.8048456852
C     -2.0590468797     -1.813686132     1.6461910555
C     -3.3303309037     0.7227788018     1.4561159397
C     -1.146780781     1.6743476321     2.1101317673
C     -2.098236435     0.610720873     2.2088283519
C     -1.5344214254     -0.690346435     2.4189402308
C     -1.7560146668     -2.447853501     -1.0612114659
C     -0.7922466076     -2.9874728951     -0.1064305473
C     -2.9806897945     -1.9993321104     -0.6350967213
C     -0.9233267182     -2.6285793568     1.2393385181
C     0.2435817107     -2.1629315391     1.9658724925
C     0.5067015202     -2.9223355331     -0.7042380685
C     1.6457082649     -2.8664892219     0.1021668452
C     1.5126424473     -2.3628368724     1.4726039304
C     0.2550289928     1.4755691756     2.3146025763
C     0.8370492741     0.189183057     2.5494059629
C     -0.1163811377     -0.8834082366     2.5693264041
C     -3.590768863     -0.9097780921     -1.352882205
C     -0.9710224823     -1.7102759999     -2.0558857543
C     -1.3727672172     -0.383553025     -2.3928635837
C     -2.7450440235     -0.0430385884     -2.1371363617
C     1.0722799476     0.2701485852     -2.3912120106
C     -0.3269767665     0.6531038025     -2.3327947139
C     2.0636536381     1.274885584     -2.0553431518
C     0.4049367576     -2.0422506137     -1.8673344168
C     1.4547485378     -1.1366673087     -2.1876154276
C     3.4351073471     0.9252560666     -1.6733684206
C     2.7487207005     -1.4366347409     -1.6012958714
C     3.7092160165     -0.398356485     -1.3766568853
C     2.7893006444     -2.2569595236     -0.4352552299
C     -4.4369264868     -0.1307250823     -0.476949978
C     -4.1372630484     1.2314699729     -0.7043822427
C     -3.0861111489     1.2826440212     -1.6908370837
C     -0.6905189687     1.9225999828     -1.6831693923
C     -2.0258987843     2.1631901535     -1.2954523806
C     3.838127428     1.7440698764     -0.5304321683
C     4.1900684993     -0.4799790605     0.053706551
C     4.0404599891     0.8051169088     0.588211857
C     3.5238004017     -1.5525089155     0.6295059039
C     0.993352299     2.4192368708     1.4750603428
C     2.3138743976     2.2210307894     1.1678436075
C     3.0272577391     1.0289269781     1.6007964848
C     2.2511360306     -0.0650918152     2.1531783414
C     2.5909301958     -1.3953261592     1.7041521006
C     2.7306992942     2.5052910621     -0.2076057791


