52

 C     1.2370865514     -1.3847935952     2.5120649496
C     0.0298714016     -0.7078042298     2.9649113447
C     2.3681935078     -0.6582898721     2.1863198374
C     -0.030083127     0.707339053     2.9650144678
C     -1.2372698376     1.3843934975     2.5121718908
C     -1.0915047708     -1.4656430832     2.513563005
C     -2.3076570694     -0.8117781901     2.2191437699
C     -2.3683372208     0.6579243254     2.1862226126
C     2.7687422497     -2.0747970122     0.192012517
C     1.5921631031     -2.87636054     0.5644243367
C     3.1992084262     -1.0454011268     1.0302568702
C     0.8279083188     -2.5288992423     1.6982652533
C     0.8889999131     -3.2144291468     -0.6194673308
C     -0.6095998595     -2.5557165308     1.6529744702
C     -2.5979742808     -2.2679439659     0.2240510246
C     -1.3158161337     -2.886654191     0.4440254029
C     -0.5072642918     -3.1274721606     -0.7282654369
C     -3.0967731781     -1.2970269892     1.1594666023
C     3.5612443433     0.4266030524     -0.9033879096
C     2.9071322267     -0.5112877032     -1.7649982394
C     3.7123441954     0.1670622709     0.4538613031
C     2.6596260122     -1.8096804384     -1.2519782167
C     1.5086740743     -2.4708195256     -1.7193676538
C     1.9265199322     1.5978663935     -2.0645908217
C     2.9164276514     1.7332975548     -1.0611122166
C     0.7647103785     2.3430755848     -1.9481477994
C     0.4916942171     -1.8221520202     -2.4545751432
C     0.6151517286     -0.4190717094     -2.7935306422
C     1.8680415666     0.1866346121     -2.5070711368
C     3.0967017508     1.2967992607     1.1598916877
C     2.3075000963     0.8114106641     2.21944878
C     1.0913190806     1.4652311455     2.5138423513
C     2.597947934     2.2678896173     0.2245683014
C     0.5073355497     3.1275937725     -0.7277766941
C     1.3157831268     2.886581087     0.4445422464
C     0.6094825706     2.5554581172     1.6533961822
C     -0.8889560299     3.2145311949     -0.6190547995
C     -1.5922017899     2.8762669441     0.5647176359
C     -0.8280199393     2.5286118785     1.6985582694
C     -1.5085494962     2.4711023072     -1.7191226608
C     -0.7645412543     -2.3427246475     -1.9485550495
C     -1.9263639913     -1.5975066039     -2.0649543219
C     -1.8678806233     -0.1862112785     -2.5072309237
C     -0.614950142     0.4195363596     -2.7935199204
C     -0.4915396235     1.8225546571     -2.4543400993
C     -2.916353561     -1.7331263977     -1.0616070564
C     -3.7123306559     -0.1671341769     0.4535264043
C     -3.5612083482     -0.426478717     -0.9037399473
C     -2.6595603155     1.8098845878     -1.2519246691
C     -2.7687532092     2.0747518872     0.1920830897
C     -3.1992669407     1.0452242907     1.0301587137
C     -2.907024217     0.5115789783     -1.7651646313


