52

 C     -1.6013395014     -2.8654451542     0.0196671516
C     -2.2511059598     -2.3246783356     1.1346934778
C     -3.3705168842     -1.4483527939     0.9269539753
C     -0.1755117717     -3.1079380167     0.0800493597
C     -1.4321870342     -1.7136396538     2.1844952742
C     -0.0781466917     -1.9347905184     2.224430795
C     0.5608212489     -2.7808824769     1.2263719754
C     -3.1757561135     -0.2451968221     1.7545318059
C     -3.5188580916     0.8955039095     0.9633551766
C     -2.6518239676     1.9855309347     1.0163206499
C     -1.0337419745     0.7493848646     2.5242382791
C     -1.4954681735     1.9631126018     1.9171665022
C     -1.9467449845     -0.3643981829     2.4382720459
C     -3.3447125164     0.8688822851     -1.4884084808
C     -2.4129993863     1.9587449519     -1.4680047437
C     -3.9545869487     0.3913621799     -0.3421097159
C     -2.2216440176     2.6402807579     -0.2425992787
C     -0.9562606196     3.1898330599     -0.0132805854
C     0.8610401681     -0.8655823151     2.5545812024
C     0.4244540384     0.4929612814     2.6000313844
C     -0.5224837267     2.8444138882     1.366227584
C     -1.4554684145     0.130197358     -2.6203802543
C     -2.7463665071     -0.2531870361     -2.2334849681
C     -0.3585703393     -0.7933335295     -2.548373889
C     1.0155242044     -0.2688016586     -2.5013007862
C     3.3099007554     -0.7225670203     -1.66177871
C     2.0549784131     -1.1847232872     -2.1283206947
C     2.4805204435     1.5622796385     -1.6576022591
C     1.2295303444     1.1559497754     -2.2234864436
C     3.5439019935     0.6367233867     -1.4653558062
C     -1.2457608163     1.5443384039     -2.2254056106
C     0.1450601593     2.9632545342     -0.8434818536
C     0.0515493857     2.0105073863     -1.9315812113
C     -2.9925108766     -1.4568034056     -1.4926621451
C     -3.7959304629     -1.0749247761     -0.3368072672
C     -1.9190590804     -2.335217385     -1.3143169537
C     0.3856563702     -2.7462612191     -1.2084576653
C     -0.6492452783     -2.067983926     -1.9642315994
C     1.6983644825     -2.3525256042     -1.3160004655
C     4.1234440617     0.7992165729     -0.098844042
C     1.3161889008     2.9187161952     0.031459102
C     3.3306958537     1.7181663317     0.5558583433
C     2.4678234422     2.3814058458     -0.4196487626
C     2.1524023532     -1.2453472323     2.0328374613
C     3.1150991227     -0.2757665555     1.7297325985
C     2.6993624363     1.109674743     1.7448124804
C     1.3878627372     1.4962711234     2.1162772893
C     0.8404855094     2.6442570195     1.40938111
C     3.606288117     -1.4112633869     -0.3744076359
C     2.5633684389     -2.355561621     -0.1362463085
C     1.9405867956     -2.3832654006     1.1243869994
C     4.0019103627     -0.472561716     0.5804361131


