52

 C     -2.1040396265     -0.9450264335     -2.3552231797
C     -3.1547286378     -0.431405872     -1.5851823329
C     -1.1332678848     -0.0464493687     -2.8596119188
C     -3.511619588     0.8717008407     0.2621642486
C     -2.7702820179     1.5570816566     1.2499183195
C     -1.9034855594     2.5829556372     0.8607924867
C     -3.1542476617     0.9413903549     -1.1075522494
C     -1.1597407359     1.3612717446     -2.4978306007
C     -2.1169645224     1.8510524406     -1.5345424716
C     -1.6356447044     2.7949144572     -0.5549188203
C     -1.0790929381     0.6893021222     2.8296850211
C     -0.2105628332     1.8205471684     2.497646696
C     -2.3290077546     0.5625784767     2.2527247667
C     -0.6437180613     2.7877281852     1.577908049
C     0.3047765807     3.3001947018     0.6498507179
C     -0.304679012     3.3002466367     -0.649632391
C     -1.9182614841     -1.8628336924     1.8540777978
C     -0.6349303549     -1.7244417689     2.4967049394
C     -2.7993416707     -0.7569690041     1.8154803629
C     -0.2308393237     -0.4776762575     3.0095396122
C     1.1332633673     -0.0466726769     2.8596158388
C     0.3271719777     -2.5624584903     1.78906658
C     1.6676191672     -2.2164796637     1.7426208901
C     2.104011302     -0.9452455022     2.3551626944
C     3.1547034705     -0.4315961615     1.5851566799
C     1.6357292288     2.794828274     0.5551110325
C     2.1170148777     1.8508897091     1.5346685883
C     1.159781725     1.3610717463     2.4979273683
C     3.1542797802     0.9412255657     1.1076206175
C     -3.425085015     -1.3485937763     -0.4842465138
C     -2.4363459042     -2.3933087726     -0.5146321419
C     -3.5859843116     -0.5591561011     0.648005844
C     -1.7435073319     -2.7048212422     0.6687947736
C     -0.3444563877     -3.09091486     0.6103784083
C     -1.667682609     -2.2163119276     -1.7427737465
C     -0.3272453111     -2.5623291605     -1.789241972
C     0.3443694499     -3.09088273     -0.6105891108
C     3.4250506262     -1.348732192     0.4841545464
C     2.436275824     -2.3934128545     0.5144711314
C     1.7434280718     -2.7048310275     -0.6689796366
C     3.5859659571     -0.5592302617     -0.6480435324
C     1.9035585309     2.5829535123     -0.8606170451
C     2.7703263686     1.5570788807     -1.2498141794
C     3.5116281191     0.8716048838     -0.2621052703
C     1.0791118329     0.6894557874     -2.8296390935
C     0.2106161269     1.8207047615     -2.4975264727
C     0.6437989525     2.7878117764     -1.577717528
C     2.3290268042     0.5626619663     -2.2526915026
C     1.9182113427     -1.8627667811     -1.8542041251
C     0.6348788082     -1.7242986885     -2.4968251461
C     0.2308205005     -0.4774839608     -3.0095667538
C     2.799322449     -0.7569320584     -1.8155402766


