52

 C     -2.4343481318     -1.5793858267     1.6866588076
C     -3.28518713     -1.7620250921     0.5665037022
C     0.2154846758     -1.0217704956     2.5963271767
C     -0.722780066     0.0466317436     2.5799349432
C     -2.1141641799     -0.2450844951     2.1628109795
C     -2.8894238887     0.8160952932     1.6206472076
C     -2.3560384629     2.1754058723     1.5686705183
C     1.6238560269     -0.8194875444     2.4536424475
C     2.1373656658     0.4847037605     2.3595024686
C     1.2284495612     1.5716865913     2.2126727532
C     -0.1673684295     1.4055089959     2.3734991978
C     -1.0043286743     2.4167379582     1.7862656085
C     3.2772865632     0.7283484906     1.4968170502
C     3.8123713204     -0.2535283323     0.6954202465
C     -3.5681184758     0.6155740488     0.3482473403
C     -3.5769223333     -0.6271328172     -0.2434622244
C     -2.7060494198     2.7700662553     0.2927771102
C     -0.481960701     3.1979053258     0.6008966163
C     -1.524066917     3.311365322     -0.3257409708
C     -3.2222554884     1.7474583667     -0.4927513622
C     -2.8393190734     -0.8311900468     -1.5298570089
C     -2.359547223     -2.152225758     -1.5152784751
C     -2.7433393936     -2.8101053706     -0.2929546673
C     -0.463682671     -3.1979661435     -0.6819966668
C     -1.5630118297     -3.2736051148     0.2761317094
C     -2.3683023926     1.5613259982     -1.6611714068
C     -2.0515478484     0.2453510393     -2.0996959063
C     -0.6835788315     -0.0548421249     -2.5793794869
C     -0.1324061338     -1.4148000686     -2.3940275072
C     -0.9491292731     -2.4145011477     -1.7773844907
C     1.2645345006     -1.5793912846     -2.2183392759
C     -1.3792553737     -2.5978806435     1.5535428199
C     -0.1014784091     -2.3022836997     1.9523947134
C     1.0668563788     -2.7080433566     1.1747068881
C     1.7813877024     -2.4395192537     -1.1502547206
C     0.8670846397     -3.0270231299     -0.2147583004
C     3.0029401498     -1.899679856     -0.7002459527
C     3.2147761398     -1.5837560296     0.6744210348
C     2.160477776     -1.8741269134     1.5760344585
C     1.6788111813     0.8114233015     -2.4641358027
C     2.1972250524     -0.4788746926     -2.3757995818
C     3.3223657074     -0.7142581567     -1.5055151847
C     -1.3472712479     2.6021699874     -1.585756573
C     -0.0672028449     2.2999433687     -2.0084409699
C     0.2476839414     1.0131895244     -2.6042663587
C     1.7754942637     2.4474117487     1.1251234847
C     0.8639864723     3.0094364708     0.1667964417
C     1.0859901671     2.6906170316     -1.2096121724
C     3.2373108966     1.6023603217     -0.6846566536
C     2.9971493749     1.9370432117     0.706514796
C     2.2129549572     1.8768528857     -1.6046246877
C     3.8302517297     0.2778644806     -0.6868241132


