52

 C     3.5509112754     0.3186602204     1.3975454622
C     2.5733903727     1.2902211767     1.8269975128
C     2.3140342732     2.3907084164     0.9956217062
C     3.0049996667     -0.9871261239     1.6483772382
C     -1.424022194     2.5750303209     1.1939413122
C     0.9225793565     2.7938949827     0.8514365422
C     -0.1127921707     2.259880701     1.6421670079
C     1.4406165862     0.5389932049     2.4195095232
C     0.1187487789     0.9873912041     2.3613945921
C     -2.5368945231     1.8291398121     1.6860006457
C     1.0509168268     -2.8706743973     1.074675548
C     0.7133388334     -1.8411533553     2.0485678854
C     1.7381502401     -0.8852286133     2.2954011178
C     -0.6898509085     -1.43352806     2.2047658736
C     -0.9889848086     0.0001434904     2.4179212542
C     -2.3029451732     0.463909691     2.1598150086
C     0.6484142865     2.9964925407     -0.5670245493
C     1.8035832022     2.6132185958     -1.2447494986
C     -3.0018212769     2.4013975765     -0.4886020905
C     -1.6923671292     2.8940453198     -0.2027218102
C     -0.6260603681     2.6971036514     -1.1150201312
C     -3.1141882819     1.4265724838     -1.4718336212
C     -1.962498328     0.9308605057     -2.1734341605
C     -0.7063453595     1.5946733424     -2.0891936586
C     -3.5896986555     1.8537318598     0.746494218
C     2.9134764904     2.4369509378     -0.3213043344
C     3.676538803     1.3737933192     -0.8005429216
C     0.5048253971     0.8328939593     -2.3911777072
C     1.7644944682     1.4811191838     -2.1573905061
C     2.9644403237     0.7632475926     -1.9383966954
C     4.0605485095     0.3183365044     0.0697247416
C     3.7563949683     -0.9582914422     -0.5596109748
C     2.1338160375     -2.6325066167     0.1349093327
C     3.1729782628     -1.782475904     0.4492828892
C     0.2576375898     -3.1850891519     -1.1038019949
C     1.5063789194     -2.5622907118     -1.1976728659
C     -2.0151718022     -0.5142117557     -2.1732561854
C     -0.8410049402     -1.3022742082     -2.2488885824
C     0.4692627825     -0.6370740236     -2.3783297071
C     1.6780325133     -1.3533646342     -1.9602528544
C     2.9153908606     -0.6379505822     -1.6984376815
C     -0.9149739338     -2.6147173422     -1.6220776402
C     -3.1669444838     -0.8995314367     -1.3201766755
C     -2.985669134     -1.9678520294     -0.3926783855
C     -1.96977344     -2.870435217     -0.6459360528
C     -3.825642416     0.2561250642     -0.8890439698
C     -2.9130377418     -1.6183557138     1.0479757568
C     -3.2843305466     -0.3574554471     1.4539586636
C     -3.9882413481     0.5143787679     0.5002058384
C     0.0116471725     -3.4678702364     0.3379586133
C     -1.31204692     -3.2243660808     0.6140911768
C     -1.7002709139     -2.229091342     1.5727957944


