52

 C     2.4744015473     -2.21689262     -0.9217594889
C     2.1156014569     -1.4161820131     -2.1078081484
C     3.1375556924     -1.614674529     0.1587849742
C     2.5422479667     -0.0964971501     -2.1983336108
C     1.5872814194     0.9742524927     -2.4890912765
C     0.2284500805     0.705667228     -2.7899932155
C     -0.7345687719     1.7429595049     -2.4594985791
C     -0.3453615613     2.8480577234     -1.6720811862
C     1.3425376643     -3.0321022836     -0.6396559607
C     0.3451958006     -2.8484700416     -1.6714846443
C     -1.9559831987     -2.1199415535     -1.631388246
C     -0.9387438863     -2.9331669302     -1.08633329
C     -0.2287569223     -0.7062955427     -2.7898135291
C     0.7342897488     -1.7435292576     -2.4591758988
C     -1.5875539324     -0.9748095414     -2.4887015043
C     0.6834149964     -3.0208111139     0.6067166396
C     1.2426506814     -2.2498238301     1.6847511719
C     2.4898453623     -1.5846886311     1.4593332207
C     2.7066925131     -0.2222586649     2.0093450728
C     1.6792380905     0.4022472722     2.7477785176
C     0.2968006044     -1.6295602376     2.5942648355
C     0.5945494809     -0.4004590737     3.2197293213
C     -0.7732715987     -3.0203852909     0.3435815228
C     -2.9132655083     -1.8148194309     0.6122089425
C     -1.6982042088     -2.3616727202     1.2099869693
C     -1.1551356748     -1.6820619451     2.3490400315
C     -3.026183214     -1.7511863658     -0.8094455521
C     3.4153693252     0.5452568719     1.0771243141
C     1.1554172893     1.6825824791     2.3485416912
C     1.6983323942     2.3619509391     1.2092613625
C     2.9133293929     1.8149694154     0.611448824
C     0.7733098812     3.0204699229     0.3428264948
C     -0.5942029222     0.4011941005     3.2196847518
C     -0.2965107639     1.6301526006     2.5939214211
C     3.737436816     -0.3182132948     -0.0602867861
C     3.4655385921     0.3996155916     -1.2051191475
C     3.0261246253     1.7510108961     -0.8101923702
C     0.9386310788     2.9329059626     -1.0870887421
C     1.9558092637     2.1195695191     -1.632098134
C     -1.6789406712     -0.4016276049     2.7480441318
C     -2.7064628959     0.2227273604     2.0095887906
C     -2.4896847725     1.5850125556     1.4592391497
C     -1.2424687103     2.2502075263     1.6843932873
C     -0.6833609185     3.0209628727     0.6061140782
C     -3.4152675456     -0.5450089024     1.0776304223
C     -3.4656548889     -0.3998853832     -1.2046388899
C     -3.7374697263     0.3182003662     -0.0599460001
C     -2.4745019743     2.2166812407     -0.9219930431
C     -2.1158415943     1.4157089632     -2.1078794872
C     -2.5424983728     0.0959980091     -2.1980913125
C     -3.1375437322     1.6147031172     0.1587632082
C     -1.3426037981     3.0319394207     -0.6401851043


