52

 C     1.903224249     -1.3808433967     2.1484906157
C     2.6191213433     -0.191868583     2.285595211
C     3.774060811     0.0413690424     1.4417600837
C     0.4801965361     -1.3974473716     2.4003193038
C     1.8483979923     1.0476198884     2.3326099139
C     0.4544944049     1.0484701194     2.3431218558
C     -0.2776578904     -0.211259681     2.5655955097
C     -2.4208432182     0.9668332672     2.0890028228
C     -1.7364485621     -0.2647524559     2.3810852173
C     -2.323954971     -1.4875564615     1.8867439432
C     3.7486462382     1.4416131119     1.0195691071
C     2.5633030658     1.9932317816     1.4626795601
C     -1.6159931197     2.0917201851     1.5562973739
C     -0.2415440859     2.104686152     1.5650915087
C     2.5816948637     2.2249648145     -0.881110378
C     3.7364735429     1.4784305598     -0.4505359549
C     1.8256791155     1.7386875342     -1.9522830252
C     0.4713190105     2.6850370475     0.3838701705
C     1.8465225335     2.6126205495     0.3446081998
C     0.4010247971     1.9885428975     -1.9860972704
C     -0.2553251912     2.6294527948     -0.9059669268
C     2.0478795799     0.4021211859     -2.4746003089
C     3.016177503     -0.416317937     -1.8585662185
C     3.9060348861     0.1658397556     -0.898428948
C     0.744103575     -0.1329564224     -2.831963342
C     2.5892856369     -1.724375658     -1.3567477467
C     1.3329793605     -2.2210837276     -1.6929333229
C     0.4070220479     -1.4407102151     -2.510052572
C     -2.3764196832     1.6262507043     -1.7088355789
C     -1.6438738127     0.6010838301     -2.3966042188
C     -0.272482488     0.8950763561     -2.6366839398
C     -3.5815941969     2.0257427434     0.3036803451
C     -2.3503163616     2.6223354727     0.3922591402
C     -1.6513981948     2.554022159     -0.8929905884
C     3.0787800066     -1.85055513     0.0203332855
C     3.9340571046     -0.7346085952     0.2926485704
C     2.1670113133     -2.263705768     1.0120593948
C     0.9098510159     -2.8695759485     0.6360370647
C     0.5290766668     -2.9154617533     -0.7119493701
C     -0.0946450642     -2.4903007306     1.6247875747
C     -1.4318501213     -2.5003582721     1.3291057919
C     -0.8722409895     -2.7381524579     -1.0602394152
C     -3.0339504129     -2.0312666253     -0.2690647634
C     -1.8486726564     -2.7563747584     -0.0576625825
C     -3.615625643     1.3326425115     -0.986988389
C     -3.9475678156     0.0140847249     -0.7613808737
C     -3.1659924957     -1.0776215828     -1.312650116
C     -2.0229534312     -0.814953005     -2.166855014
C     -0.9640295602     -1.7717598595     -2.1329089509
C     -4.0876929054     -0.2123259668     0.7259551402
C     -3.6365530122     0.9703968828     1.3447693299
C     -3.4467613172     -1.4066837091     1.0060237806


