52

 C     -2.8251439332     -1.2904663832     1.3066638733
C     -2.2889625444     -2.5373913583     0.9617997914
C     -2.1287456149     -0.465627161     2.2267055284
C     -0.3799727626     -3.5275652569     0.2212543957
C     0.9754595127     -3.2666147345     -0.126902355
C     1.8097399687     -2.7276868881     0.8613110511
C     -0.977426019     -2.9537703961     1.3801086031
C     -0.7904480407     -0.8333132868     2.6488189762
C     -0.1882910319     -2.0562158631     2.2110397696
C     1.2191202592     -2.0277629094     2.0164313332
C     2.936414108     -2.0127253688     0.432131353
C     3.1574954612     -0.9038304294     1.3801212826
C     3.6641092074     0.1789429533     0.7171553917
C     -0.0249076479     0.3857897257     2.7757261704
C     1.3730507819     0.4381062752     2.4770758902
C     1.9986929881     -0.8299276879     2.2388893408
C     3.0287844332     -1.4831017584     -0.8779516882
C     1.9113486633     -1.6449298835     -1.790129935
C     0.9872796281     -2.6775802797     -1.4558667731
C     -0.4122716553     -2.6607608561     -1.9080539718
C     -0.9105354277     -1.5002235861     -2.5130460667
C     3.6639962869     -0.1792578844     -0.7175303508
C     3.1574304263     0.9035493149     -1.3804721932
C     1.9985263564     0.8297740733     -2.2391376484
C     1.3727305079     -0.4382137131     -2.4772291858
C     -0.025248704     -0.3857754146     -2.7757169272
C     -2.4245993553     -2.7499826394     -0.4896533085
C     -2.9195470676     -1.5532466329     -1.0504511646
C     -1.2287133402     -3.3322179094     -0.9381780916
C     -2.2095690622     -0.9634605359     -2.1270787179
C     -2.1289535174     0.4658088862     -2.2264854526
C     -3.3536102085     -0.6789396517     0.0671968657
C     -3.3535537329     0.6792237628     -0.0668239686
C     -2.8251787376     1.2907088513     -1.3063547802
C     -2.2888601273     2.5375771419     -0.961547199
C     1.2190747885     2.02764729     -2.0165683524
C     -0.1883509415     2.0562371901     -2.2110227453
C     -0.7906693631     0.8333847591     -2.6487199906
C     -0.9773164475     2.9538598233     -1.3799962017
C     1.8099115699     2.7275413548     -0.8614962056
C     0.9757452205     3.2664923401     0.1268074133
C     -0.3797061027     3.5275914084     -0.2212192761
C     2.93654365     2.0124772111     -0.4324581691
C     -0.9101377972     1.5003019766     2.5131441378
C     -0.4118388091     2.6608012041     1.9080939042
C     0.9876689812     2.67750194     1.4557199126
C     1.9117118419     1.6447563352     1.7899292439
C     3.0290046938     1.482836099     0.8776329353
C     -2.4243338043     2.7502041395     0.4899203896
C     -2.9193063076     1.5535025229     1.0507699293
C     -2.2092562388     0.9636466639     2.1273191498
C     -1.2283349926     3.3323152262     0.9383140869


