52

 C     0.2553316273     2.2837956115     -2.200227884
C     -0.7653546939     1.3815218619     -2.617651032
C     -2.7814167362     -0.4982771781     -2.187021726
C     1.5790792144     1.8905921349     -1.9547692533
C     2.0170911303     0.5494794364     -2.2372117076
C     0.9502459175     -0.438792999     -2.5372129837
C     -0.4224959902     -0.001067095     -2.8425529202
C     -1.5171291088     -0.9216757194     -2.7016396082
C     2.2687294365     -2.0293522513     -1.1468897617
C     1.1164788812     -1.7475863163     -1.9313394525
C     3.23252774     0.1360644624     -1.5940942704
C     3.444085042     -1.2470200912     -1.2079421112
C     -3.2364581794     -1.4629866605     -1.1630994876
C     -3.6439607115     -0.7572889433     0.0180849662
C     -3.1640377516     -1.2452183266     1.2697981612
C     -2.8560425354     -0.2855135073     2.2767400951
C     -2.3330708881     -2.5068661242     -1.116978744
C     -0.0429309155     -2.511800356     -1.5601090278
C     -1.2830515091     -2.2125112266     -2.0949157179
C     -3.5499254167     0.6715155559     -0.2879141272
C     -2.8700531713     1.0756052014     2.0158410599
C     -3.133408437     1.5721930695     0.7016323863
C     -1.9884026679     1.7522859741     -1.9259302203
C     -1.6212526241     2.7276767574     -0.8935371817
C     -2.9673403246     0.7892721552     -1.6502633067
C     -2.0757933979     2.5542208742     0.400379358
C     -1.0766612686     2.5174402526     1.4956423588
C     -0.2415449322     3.0457186931     -1.082603945
C     0.7345473921     3.0132011421     -0.059956809
C     0.3443040191     2.5901951263     1.2553921676
C     -1.5416540179     -0.6188204132     2.8702054595
C     -0.7423850951     0.5503893722     2.9560432549
C     -1.5620456254     1.6111910645     2.4368466593
C     0.6449181273     0.5076223923     2.6470444806
C     1.2266344464     1.6521735609     1.9562094854
C     2.5672865571     1.4998239753     1.4661868466
C     2.9297267718     1.935888973     0.0862512628
C     1.9520911044     2.5174097258     -0.6751243202
C     3.7905107908     0.9586054135     -0.5137433087
C     4.1667813848     0.0624148536     0.5221367225
C     1.2296508536     -0.822560201     2.4174524558
C     2.5956925853     -0.8846959378     2.0221460174
C     3.2919671721     0.3222309967     1.7074539238
C     -0.2600952663     -2.9594682888     -0.1590993346
C     -1.6762835624     -2.8544301447     0.1174533542
C     -2.0948421931     -2.2559842951     1.3052586567
C     0.7289228644     -2.6426990514     0.7802850665
C     0.3352063136     -1.896302627     1.9825109106
C     -1.0624951423     -1.7834206483     2.2446833392
C     3.0316071286     -1.850935818     1.0159664843
C     2.0504732084     -2.4785705007     0.2551037433
C     4.0262624533     -1.254653916     0.1191195648


