52

 C     -1.1993086295     2.4539641836     1.6558197899
C     -2.2380852525     1.5861358386     1.9737655142
C     2.467719919     2.1887812089     1.0330090744
C     1.1766847098     2.8366835906     1.3103503188
C     0.1528200575     2.1354598997     2.0283712197
C     2.7330775444     0.9580165691     1.5720894818
C     1.7469058765     0.2964717081     2.4537447715
C     0.406454879     0.7831239276     2.5542143334
C     2.7828043893     2.4030162002     -0.3716663419
C     -3.2244287725     1.5566132994     0.8850964374
C     -3.7593702225     0.2651380481     0.8346945639
C     -2.988455042     -0.5799145968     1.801243372
C     0.9752100755     -2.0407939374     2.1925036883
C     -0.3954977853     -1.6151855265     2.1985527139
C     -0.6672432047     -0.2213499537     2.5880329454
C     -2.0106651204     0.2417925494     2.4247495656
C     2.0097688273     -1.0736604612     2.4255496577
C     -3.8295014841     -0.4033692598     -0.3695532602
C     -3.3188501805     -1.7711470734     -0.1294816175
C     -2.598871366     -2.1459068897     -1.2319477539
C     -1.3349102045     -2.7799676986     -1.1266469944
C     0.6603914128     -3.3278011383     0.1383602407
C     -0.7485963324     -3.0471393509     0.1534483488
C     -1.3226010009     -2.3186806169     1.3069955098
C     -2.6600599453     -1.7965448725     1.174342099
C     1.4606672835     -3.0001665886     1.2533429478
C     -3.1234719708     0.1398558486     -1.525672141
C     -2.3991966439     1.3864902839     -1.4469130124
C     -2.6016861923     2.1573376031     -0.2392764423
C     -1.4929606759     2.9402006665     0.2982800676
C     -0.4628917819     3.3244653578     -0.5031977647
C     -2.4574001619     -0.9652360427     -2.1144629584
C     -1.0756461409     1.4849948609     -2.1237055348
C     -0.2420127997     2.6027801411     -1.785717953
C     0.8298982013     3.5200972048     0.0999652391
C     1.8198259992     3.2757076625     -0.9025552456
C     -1.1366175686     -0.9340404241     -2.5833907377
C     -0.3975678899     0.2923035784     -2.6273777984
C     1.1558820386     2.5862046256     -1.9862002344
C     -0.4950540019     -2.1771657456     -2.1585917681
C     0.8778364673     -2.2787489052     -2.0726934755
C     1.6937991062     -1.0713718297     -2.2622449182
C     1.077779147     0.1861207494     -2.5654187879
C     1.8345641983     1.3331676311     -2.2017018974
C     1.4452804191     -3.087030706     -1.0621667294
C     2.7479716261     -2.4838590813     0.7379883782
C     2.6710530301     -2.4476303888     -0.667101781
C     3.0607763738     -1.3099441517     1.4294138036
C     2.901009184     1.2380011192     -1.2204537359
C     2.8187814102     -1.1875428987     -1.3665026473
C     3.2865420868     -0.0167345154     -0.661305701
C     3.3874161081     -0.0920117027     0.7820231497


