52

 C     2.5084874606     2.5327484204     -0.7501295842
C     3.2426201637     1.3106735272     -0.573336292
C     3.0237488753     0.3008676945     -1.500437752
C     1.8051778827     0.3054869812     -2.3355567808
C     0.8992677762     1.3969386791     -2.2751354778
C     1.3304736668     2.5731578061     -1.5487647034
C     3.2726029326     -1.024917301     -1.0951346045
C     2.3378951973     -1.9014891152     -1.8029473928
C     2.0053249077     -2.9742568253     -1.0057697287
C     -1.4248514653     2.0787190343     -1.868666159
C     -0.5316675352     1.1009182123     -2.4196494827
C     -0.0469539241     -1.3962507603     -2.3452869781
C     1.3433514403     -1.0586696531     -2.4266409174
C     3.2393417657     -1.391664078     0.2753445847
C     2.8944199405     -0.3726577999     1.2622017256
C     3.1475625561     0.9667506239     0.8488395994
C     1.7539622048     -0.6090395096     2.1779443582
C     0.8738537334     0.5227840173     2.541990627
C     -0.528619459     0.3062734211     2.6968363856
C     2.6035190409     -2.6878318232     0.3193276094
C     1.6214798328     -2.9200779154     1.2478683484
C     1.1552211252     -1.909105205     2.1706246652
C     -0.2775731346     -2.0770400677     2.2855331979
C     -1.1042952638     -0.9963431125     2.5582711366
C     1.2640202181     1.8511004127     2.182180098
C     2.4652602146     2.0673760712     1.4783700631
C     -2.6990301102     0.5415716061     1.7832492063
C     -1.5176144038     1.2634475198     2.2077949154
C     -1.095577326     2.467772451     1.5660641862
C     0.2769284141     2.811683185     1.6442609416
C     -3.4506837787     1.0053400612     0.6609989454
C     -2.4350554301     -0.8756506568     1.9573861895
C     2.250473516     3.1361512975     0.523470905
C     0.9190669769     3.5648910731     0.5868363154
C     -2.9344811015     2.1425533155     -0.0451420167
C     -1.8046975222     2.8368184862     0.341299871
C     -0.9588346169     3.0228098011     -0.8706391013
C     0.3632146451     3.3331651586     -0.742223781
C     -3.2382435618     0.4765173946     -1.6448368278
C     -2.7494594807     1.7357315272     -1.4733102481
C     -3.5013815098     -1.2951493057     -0.1987142422
C     -3.8213339844     0.0341361087     -0.340575312
C     -0.7068826463     -3.0400313941     1.2529084196
C     -1.8519367729     -2.7799159549     0.5073581056
C     -2.8238899033     -1.7942307983     0.9658516724
C     0.4383901535     -3.4837957912     0.5728972723
C     -2.3795568431     -0.5676919554     -2.1598176343
C     -1.0058292352     -0.2953541092     -2.5019454656
C     -2.6713054099     -1.7020084451     -1.35441149
C     -1.695611164     -2.6176481756     -0.9405975074
C     -0.4022741503     -2.6013917409     -1.5631509588
C     0.621955092     -3.3141523935     -0.8329289061


