52

 C     -3.0668860679     0.4860866664     -2.1720899281
C     -2.9156389506     1.6984710231     -1.5233191179
C     -3.1959868161     -1.5497445674     -1.1615160342
C     -3.9125493904     -0.3783280786     -1.3401490938
C     -0.303771155     3.0913197897     0.5133879308
C     -1.5397887577     2.7659170614     -0.0219943078
C     -1.6574662345     2.3248289693     -1.4047820722
C     -1.864125377     -0.2243346737     -2.5583101966
C     -0.5947606655     0.4294682266     -2.5807212539
C     -0.4890748005     1.7844118845     -2.0315282256
C     1.96750483     1.5423343755     -1.9673014061
C     0.8159216052     2.2459372145     -1.5396538457
C     0.8928327944     2.9330140031     -0.27590719
C     -0.8928813819     -2.9328870999     -0.2772639336
C     -0.8161901183     -2.2451549534     -1.5406723011
C     -1.9678465722     -1.5413388074     -1.9677584336
C     0.4887235735     -1.783376137     -2.0325278694
C     0.5943130427     -0.4281493411     -2.5810427539
C     1.8636835239     0.2256456786     -2.5585112622
C     -0.036182441     2.6652249133     1.8516584628
C     1.9782153317     2.6153966236     0.655537549
C     1.3742851701     2.3176317033     1.9074064614
C     -0.8040359435     1.6568249903     2.448499264
C     -2.0903916706     1.2860555289     1.9186279348
C     -2.531445801     2.053995696     0.7784682801
C     -3.4766360352     1.5241781343     -0.1365376602
C     -4.0047023571     0.2464389229     -0.0203397797
C     0.1783763677     0.6552149254     2.9275661339
C     -0.1778674037     -0.656709567     2.9272513081
C     -1.5375349363     -1.0591562931     2.5141944927
C     -2.5032755786     -0.1238634084     1.9878066666
C     -3.411293058     -0.6363059204     0.9812439617
C     3.4114701631     0.6358006039     0.9809958516
C     2.503622906     0.1228433115     1.9874480622
C     1.5379706778     1.0578777615     2.5144782492
C     3.9123040112     0.3790090441     -1.3406108733
C     3.1957985873     1.550344861     -1.1612700518
C     3.0579915255     1.8404366988     0.2605230436
C     -1.3739618687     -2.3186071181     1.9064483675
C     -1.9781038898     -2.6157444645     0.6545342698
C     -3.0579391422     -1.8405693585     0.2600959725
C     0.0364936577     -2.6661626328     1.8502746367
C     4.0047100891     -0.24643178     -0.0211399217
C     3.4766089005     -1.5241082678     -0.1379102589
C     2.5315888423     -2.0543961674     0.7769863423
C     2.0907148516     -1.28702995     1.9176071161
C     0.8044548885     -1.658076228     2.4475116044
C     2.9153684827     -1.6976850616     -1.524685845
C     3.0665176193     -0.4849817565     -2.1728715066
C     0.3038585834     -3.0915863132     0.5117486514
C     1.5397849012     -2.765905369     -0.0236730283
C     1.6572214866     -2.3241152969     -1.4062524618


