52

 C     -3.5157295481     -1.1622389198     0.9278570176
C     -3.7311259853     -0.080569415     -0.0216849978
C     -3.4197068256     1.1894658934     0.3896162547
C     -2.5804919559     1.404822637     1.6034911954
C     -1.9409679278     0.285110652     2.2431849139
C     -2.4946605819     -1.0051842905     1.9394251186
C     -2.9529758812     2.1564150002     -0.5840907873
C     -2.20222494     3.1716682255     0.0590259758
C     0.2587833241     -0.8024331422     2.678155448
C     -0.5134943205     0.3904856049     2.615529817
C     -1.8567344206     2.601199777     1.3622234683
C     -2.2731056003     1.6837936262     -1.7576927142
C     -2.3778077528     0.2959844067     -2.1040944412
C     -3.2782042018     -0.5473658533     -1.3520923766
C     -1.1864152767     -0.3010660188     -2.6286229538
C     -0.9821976249     3.2775317132     -0.6289650682
C     -0.9938688085     2.3824740343     -1.7818191396
C     -0.8248307992     -1.6890819255     -2.3208569495
C     -1.6475506508     -2.4591666016     -1.5331492298
C     -2.9393184058     -1.9175370399     -1.1652457859
C     0.6222890022     -1.7884818428     -2.2299948339
C     1.2451025105     -2.4546506996     -1.1366994956
C     2.5831784629     -2.0506714769     -0.800530326
C     4.1201404369     -0.2508914299     -0.703751146
C     3.2319774648     -1.0051860156     -1.5385307262
C     2.4149791742     -0.1022988402     -2.2957980333
C     1.1461836264     -0.5233453802     -2.6660174749
C     1.4795479072     2.0668123147     -1.4904287339
C     0.2046971259     1.7433135476     -2.1730322397
C     0.0489563372     0.4173175924     -2.7204467155
C     2.6071417447     1.2356877278     -1.7233007454
C     -3.1872594113     -2.307317516     0.1862777155
C     -1.9935266189     -2.9350933893     0.7174067233
C     -0.276799689     -2.0409985429     2.1582998463
C     -1.6250457342     -2.1878618018     1.8787433621
C     0.3579537245     -2.9456853975     -0.0620634328
C     -1.0451232958     -3.0876112583     -0.3229439205
C     0.7258078387     -2.5995771214     1.274312841
C     3.8912930692     -0.7069252716     0.636842626
C     2.9734834288     -1.8456441613     0.5956113358
C     1.9859121762     -1.954102234     1.5711238676
C     3.5769507602     0.3974115823     1.4596772056
C     3.4491544652     1.5576413649     0.5826248209
C     3.6813780829     1.1153832717     -0.7569224239
C     0.1154810003     3.1193145524     0.2820705394
C     2.2416465257     2.2101619374     0.8878361429
C     1.3732231958     2.6827285124     -0.1618791348
C     1.6883576707     -0.8212972506     2.4495661782
C     2.4097429019     0.370160119     2.2921785648
C     1.6275408168     1.5636500853     2.0529458116
C     0.2288887846     1.6141141995     2.2682294817
C     -0.4506553015     2.6396244587     1.5483775545


