52

 C     -0.804510696     -3.0631622344     0.96765705
C     -1.8854503133     -2.3248553946     1.3566846049
C     -1.7130618301     -1.2326138232     2.3128420019
C     -1.3471297298     1.5699998947     2.3137000562
C     -0.2085432925     0.7436163971     2.585440459
C     -0.3973872363     -0.7210025294     2.5871723183
C     2.0374125444     -0.9995823808     2.1230153569
C     0.7395069228     -1.6058900304     2.2901668073
C     0.5003752205     -2.839399846     1.5731878419
C     2.1900459433     0.4218795404     2.0261558891
C     1.1029320067     1.3190155325     2.239082616
C     1.1784762625     2.5990515591     1.5755763248
C     -2.5915193128     -2.0284761489     -1.0205930085
C     -1.3351663692     -2.6565075042     -1.4161313752
C     -2.917311259     -1.9217524495     0.369016008
C     -0.5781653937     -3.3293604852     -0.4728427297
C     0.817467573     -3.3962900443     -0.6567361032
C     2.7060876715     -2.6768924799     0.4164797651
C     1.4668083571     -3.3124847636     0.6145548135
C     3.0030401021     -1.5865610086     1.209004697
C     -2.7680867527     -0.8952410995     -1.8376163244
C     -0.6501207197     -1.7849203039     -2.4010160411
C     -1.5534479577     -0.7335126422     -2.6498594957
C     -3.1535607877     0.3691886283     -1.3344143463
C     -3.6186587197     0.4472600845     0.0126856973
C     -3.4994450909     -0.7363561404     0.8302689749
C     -2.1752815212     1.3353428582     -1.8274847854
C     -1.7776723823     2.435250399     -1.0487549833
C     -0.4810905422     2.9933349308     -1.3212889124
C     1.5268080609     -2.510192119     -1.5878201827
C     0.7540522251     -1.5301836046     -2.3342495964
C     1.2312779889     -0.142007808     -2.4119904765
C     0.2312434757     0.9325933448     -2.5899796235
C     -1.1605756322     0.6016320234     -2.6353808182
C     0.5195635941     2.2594409084     -2.1534904885
C     -2.6249101971     1.0108470785     2.0846260712
C     -2.8049407581     -0.3545153215     2.0831373874
C     -2.2655608335     2.5030767751     0.3288780499
C     -3.1569203709     1.5466579853     0.8026983893
C     0.2238696314     3.6912435749     -0.3126746515
C     -0.0303424687     3.2417954278     1.0662320801
C     -1.2384684758     2.6892027503     1.3782087887
C     1.6060764943     3.4934596075     -0.5460822112
C     2.4953528977     0.2030442733     -1.742859831
C     2.6902962588     1.5443288837     -1.2833517527
C     1.7957706631     2.5996674653     -1.6678241812
C     3.1835879437     -0.8088957502     -0.9597802705
C     2.7402591762     -2.1709581485     -0.979773549
C     3.0438174095     1.7902949317     0.1222986705
C     3.1983449786     0.7000906938     0.9617679167
C     3.5708141531     -0.5210379387     0.3899788608
C     2.184051088     2.8413264511     0.5714782415


