52

 C     2.3512021049     0.8199591377     2.3205969783
C     1.5627566717     -1.8611840983     1.9962422018
C     -0.7102903594     -1.1814476161     2.6023644729
C     0.6875090217     -0.9524647408     2.6683251993
C     1.0985856001     0.4208224799     2.825634879
C     2.1999632175     2.1241762518     1.668717902
C     2.8205731906     2.0490728579     0.3980886677
C     2.1323273746     2.6047115482     -0.7052409007
C     0.8652007512     2.5623419043     1.8432653767
C     0.2216798593     3.2164119991     0.7728554609
C     0.9228618773     3.296643742     -0.463778596
C     -1.6428701904     -0.1067224     2.6038907579
C     -1.2156451253     1.2592030178     2.3504208226
C     0.1491259779     1.5154130562     2.5724476175
C     3.3769967359     0.0465049807     -0.9302223842
C     2.4821868807     0.5372392748     -1.9976135002
C     3.4481371633     0.719692247     0.2859204365
C     1.8940833936     1.7732991728     -1.9001522626
C     0.5027180605     1.9578399178     -2.3347196762
C     -0.3199881627     0.8256225699     -2.722757894
C     -1.7114961539     0.9164885603     -2.4355147974
C     -0.0291272231     2.9782122198     -1.5232981686
C     3.2568081851     -1.388579145     -0.9367211358
C     2.2609890837     -1.7751284875     -1.9412428222
C     0.0595590555     -2.7116483823     -1.60539746
C     1.4273388517     -2.7895271543     -1.3674517898
C     0.2989333549     -0.5046327925     -2.7720331758
C     1.7208924608     -0.6131745522     -2.5157275354
C     -0.4948725544     -1.6408737988     -2.4172019964
C     3.029494189     -2.1163812952     0.2209178781
C     2.8147233257     -1.4108456231     1.460144873
C     3.1495630395     -0.0300759181     1.5224770851
C     1.8999745446     -3.0130570838     -0.0157040083
C     -2.5815392986     -1.9528417661     1.4462674919
C     -1.2731610452     -2.2822892655     1.7731300773
C     1.0000043782     -2.8585191678     1.0418901868
C     -0.8911741949     -2.9773813318     -0.5407141118
C     -0.4214084502     -2.9373694334     0.8128332226
C     -2.1615584344     -2.3837726637     -0.913744224
C     -3.7869993348     -0.7247922216     -0.1080535354
C     -3.0534990547     -1.9643175602     0.0829190919
C     -3.5190234413     0.0764961303     -1.1922172142
C     -2.516508621     -0.2666029147     -2.1775843468
C     -1.889446849     -1.5116625947     -2.0642047236
C     -1.3213124737     2.8778481506     -0.9606139145
C     -3.2335270634     1.4506583848     -0.7354155042
C     -2.2159173555     1.97472332     -1.5495201943
C     -2.8432571998     -0.6066827172     1.9934039677
C     -3.5598822175     0.1282963721     1.0879216097
C     -3.1102171236     1.449005018     0.6771375531
C     -1.9472311411     2.0477179838     1.3056100048
C     -1.1841852817     2.9335744272     0.4934220572


