52

 C     -1.3931537619     -1.1800996118     2.3356638905
C     -2.3613275471     -1.8519698663     1.6048039826
C     -3.5432135566     -1.161784867     1.2182578467
C     0.0053545228     -1.5852166343     2.2526379593
C     0.4442291022     -2.4867699725     1.2465594066
C     1.8151556922     -2.5144708386     0.9585283092
C     -3.9643057912     -1.6535616572     -0.0998532117
C     -0.5369694188     -2.7415125337     0.151489045
C     -1.8938759348     -2.6522588097     0.4256258436
C     -2.8123309104     -2.3311529896     -0.6211759133
C     -4.2314526481     -0.5471917402     -0.9054723076
C     -0.0827930521     -2.3699594104     -1.201701695
C     -2.3318044963     -1.6140712826     -1.8019570928
C     -3.2044324192     -0.498747249     -1.9591984248
C     -3.2298680526     1.5642230782     -0.8807996856
C     -4.0012796505     0.6327236076     -0.1218163381
C     -2.4058559196     2.443296414     -0.2041520153
C     -1.2631482948     2.961916661     -0.889448474
C     1.8808717861     -1.2028215467     -2.1618824066
C     1.1043295691     -0.0483303994     -2.3969312328
C     -0.36275335     -0.2107537979     -2.4102724949
C     -1.230622029     0.9517162859     -2.3143665163
C     -2.620422319     0.7940725448     -2.0067112707
C     -0.6237350246     2.1899553416     -1.8686319722
C     3.4519633013     -2.1178919307     -0.6223665606
C     2.2311861724     -2.7388698622     -0.4109414167
C     1.2799171253     -2.3123112679     -1.4329356356
C     -0.9314941219     -1.4802572725     -1.987392982
C     -2.0045857973     2.1997443499     1.1821734573
C     -2.4569713825     1.0029261806     1.822828454
C     -3.5606429083     0.2747491791     1.2227020271
C     -1.440778843     0.243078976     2.5105822689
C     -0.6350573824     2.6635958259     1.3164965757
C     1.7413449606     2.0110319952     1.6769525747
C     0.3729930928     1.9131777316     2.0658948968
C     -0.065228592     0.6786400589     2.6227159034
C     -0.242416999     3.2673756442     0.0923816806
C     2.6970830121     0.9137610169     1.8708182693
C     2.2049864705     -0.396398553     2.216273256
C     0.824055439     -0.4755395227     2.6005488267
C     2.7595209011     -1.5486006695     1.5326587531
C     3.6917203526     1.0219656224     0.8454537078
C     1.038074118     3.0481395494     -0.447306805
C     3.1573621414     1.9722598779     -0.1460368131
C     2.0788484358     2.6601400949     0.417148883
C     3.2625220406     -1.1241335829     -1.6802643834
C     3.8005065906     0.0792873107     -1.273792166
C     3.0222402828     1.278017014     -1.3856783723
C     1.7110434814     1.2662618991     -2.0426912468
C     0.8341790982     2.3002754994     -1.6770212541
C     4.1876320505     -0.0908058608     0.1789069688
C     3.8333804633     -1.3968300303     0.5827259006


