52

 C     3.1558500465     0.4628628247     -1.5376587379
C     3.4913477569     -0.8017030695     -0.9459555756
C     3.6521337047     -0.8544079064     0.4822379605
C     1.9875073003     0.5854397356     -2.3803940602
C     1.175365166     -0.5485564057     -2.6367898211
C     -0.2005359708     -0.3362546473     -2.8800071945
C     2.4071180617     -2.7277885206     -0.0934439258
C     2.9209451156     -2.0310351804     0.9838362383
C     1.5345741767     -1.8272492247     -2.0421817856
C     2.7239391273     -1.9495122664     -1.3097163483
C     2.2596353889     -0.1770491124     2.2436405518
C     1.0265399474     -3.1018936945     -0.1353176707
C     0.246711337     -2.9446106918     1.015101829
C     0.7702441356     -2.1384190919     2.1125853984
C     2.0596671445     -1.6129161345     2.0563114445
C     1.164697769     0.6660690982     2.5643303813
C     1.1954168097     2.0213163627     2.0100098844
C     -1.188255862     -1.2936652336     -2.5257508848
C     -0.8854951885     -2.3275297222     -1.5510175733
C     0.4804765272     -2.6358268643     -1.3988155649
C     3.2998339489     0.246907453     1.2861525427
C     2.2115980289     2.4378982891     1.1532072188
C     3.2192352672     1.541150081     0.6826303851
C     -1.2542211164     2.1176720973     1.8634417011
C     -0.0500293015     2.6304984343     1.5154858475
C     -1.3342552255     0.8909970585     2.6654457067
C     -0.3231279489     -1.3346600907     2.6203886779
C     -0.1511665749     0.0648412916     2.8342971328
C     -2.5777638934     0.3345969221     2.3743348773
C     3.2351950394     1.6329504947     -0.7399927625
C     0.1788387094     3.1275430719     0.1537561115
C     1.5752996583     3.0937731402     -0.0196132286
C     2.172343246     2.5585619533     -1.158233512
C     -2.1650695918     0.8653847767     -2.5209956539
C     -0.81162534     1.0126167773     -2.717126864
C     -2.3730704959     2.1482597976     0.9132075091
C     -2.0887055608     2.3130462336     -0.500128461
C     -0.7041415215     2.687993026     -0.8844537125
C     -0.0618917854     2.0467370543     -2.0428177563
C     1.3534580132     1.90826963     -2.107884451
C     -2.8530711559     1.4919378848     -1.4008866859
C     -3.2898394067     1.1724623202     1.3791216628
C     -3.9121885152     0.308483485     0.4694701623
C     -3.7674002666     0.5039951423     -0.8950269325
C     -1.5407997769     -1.8352029872     2.022973022
C     -3.500335005     -1.0946446618     0.804487799
C     -2.6974534382     -1.0420715925     1.9756112555
C     -2.4320487305     -0.5814562214     -2.4541174951
C     -3.3326615966     -0.8063459164     -1.4517818781
C     -3.0454490855     -1.7337511243     -0.3686585662
C     -1.7911626921     -2.4684212981     -0.376550386
C     -1.1661963795     -2.6672927774     0.8932621879


