52

 C     -3.6129379327     1.3037923998     0.8311091282
C     -4.0601712165     0.5799670025     -0.2739294663
C     -3.2730432512     1.0861285273     -1.4600110223
C     -4.0348831015     -0.8156518215     -0.2910685124
C     -2.6267239971     -0.0262981639     -2.0725985698
C     -3.1528459419     -1.1853792984     -1.412481454
C     -3.5026068902     -1.5058505714     0.8315142087
C     -2.817830941     -0.794485051     1.8802447395
C     -2.8737897887     0.622768393     1.8785670446
C     -2.5695166438     -2.49691763     0.3425880488
C     -0.2852127346     -3.0351898609     0.7482921106
C     -1.4906922731     -2.6179471595     1.2479235041
C     1.3206286273     -3.0002934532     -0.8960202775
C     -0.0504958571     -3.0472918246     -0.70369514
C     -0.623017901     1.3276086193     -2.3643735997
C     -1.2166071409     0.0394819529     -2.4404839315
C     1.1237040449     -0.9665098115     -2.2743854736
C     -0.3485201157     -1.1321302713     -2.249178854
C     -0.9235149983     -2.2610651204     -1.5243984035
C     -2.2876297661     -2.2360039852     -1.0488841995
C     1.9320518373     -2.0295796651     -1.7216131039
C     0.7675888513     1.4354872541     2.2348342844
C     -1.646270426     1.3404186265     2.0855988049
C     -0.416764445     0.6981775448     2.4403884568
C     -0.3280333432     -0.7806620063     2.4262700296
C     0.9869060806     -1.416913613     2.1208932377
C     -1.5324054831     -1.4670528746     2.147871369
C     0.9504402763     -2.6390126752     1.3829802222
C     -1.6209093941     2.4814443373     1.1492312464
C     -2.7454511961     2.3776067589     0.3379383214
C     0.7809397663     2.6498445974     1.4012320642
C     -0.3740242032     2.945822308     0.6121827134
C     -0.222496625     2.9873286079     -0.8122848014
C     -1.2582402347     2.3946365234     -1.6253806697
C     -2.5504264688     2.2354139215     -1.0994655923
C     2.0595300698     2.7492087283     0.8533973058
C     3.2496126337     1.7421637131     -0.8568693742
C     2.2155453645     2.6725955012     -0.5764024957
C     1.0551369661     2.6246882587     -1.3742087658
C     2.2357776209     -0.608816128     2.0387737305
C     2.0902004294     0.8247509264     2.1808796628
C     2.9136044598     1.7211215748     1.4452644371
C     3.7375685523     -0.483275168     -1.0546368936
C     3.0338128682     0.6249562873     -1.6907339482
C     4.0306690838     -0.1065728827     0.354426079
C     3.7904209532     1.2389522425     0.4499019387
C     1.981829208     -2.9403657401     0.4369466758
C     3.1151103713     -2.1968291087     0.344936969
C     3.334195467     -1.0631421405     1.2040273915
C     0.8188419155     1.4919407937     -2.2318468718
C     1.7139925647     0.3870020755     -2.282804538
C     3.2069542986     -1.7300714508     -1.0704577661


