52

 C     3.2403439496     -0.9072338407     1.3407314646
C     3.7164655346     -0.8662335839     -0.0352284378
C     2.2399281882     -1.801312322     1.6948778835
C     1.9014859678     0.9216663328     2.3443580501
C     3.0852111273     0.4450437162     1.7733114002
C     1.1189199691     -1.3592263132     2.5063637964
C     0.8292612853     0.023183322     2.7163323251
C     1.711323345     -2.7400415892     0.6705022041
C     1.9415117103     -2.4590079909     -0.7276876092
C     2.9957030074     -1.5068692768     -1.0514953473
C     0.7971995317     -2.4962580349     -1.5865255575
C     0.4311771672     -3.1160945349     1.0881188242
C     -0.6812385459     -3.2167813236     0.2332577824
C     -0.4899990023     -2.9104820716     -1.1292737037
C     -1.2865653458     -1.8854850399     2.1195415013
C     0.0396861908     -2.2508247152     2.220415659
C     -3.5666318986     -0.9465839845     0.8123452495
C     -1.6687434042     -0.4970454111     2.3706074882
C     -0.8101082872     1.8322563331     2.2336304711
C     -0.5750717643     0.4839337443     2.6288605578
C     -2.8861710792     -0.0755331485     1.7863652715
C     0.5515149877     -1.3688922293     -2.5244116936
C     1.4903276885     -0.3691570709     -2.7095809568
C     2.784070192     -0.5272193755     -2.1228368547
C     -0.582689196     2.5073929982     -1.629664779
C     1.0853351631     1.0259452031     -2.5938482618
C     -0.2924306907     1.3684796057     -2.4308712933
C     -1.3184135875     0.2855181873     -2.5353512973
C     -0.8546980722     -1.0779319158     -2.5664393613
C     -1.5183497923     -2.1122254325     -1.8118154079
C     3.2345985423     0.7445204452     -1.7041428577
C     3.861153571     0.5598124872     -0.4266316738
C     3.4425725366     1.3280888474     0.6328197906
C     2.1504982359     1.6861001036     -1.8637151453
C     0.4438189645     3.0383554866     -0.750171969
C     1.7978970632     2.5687328838     -0.7782382735
C     2.4277222751     2.3415384426     0.5019047524
C     -0.190053476     3.2962827537     0.5025738932
C     0.2888140645     2.6506554099     1.6724114754
C     1.5905069359     2.1930982261     1.6703022221
C     -2.8844144235     1.6671332543     -1.1242855578
C     -1.8647069374     2.6072397144     -0.9244875305
C     -1.5974578607     3.0324773652     0.4007848765
C     -2.7435598705     -1.8659308459     -1.2078031069
C     -3.3546696829     -0.5974066527     -1.4530969078
C     -2.6282340437     0.496618245     -2.0075931223
C     -2.8839895305     -2.1058346118     0.2520848973
C     -1.8286638852     -2.6215372262     0.9445746007
C     -4.0047890401     -0.1507807914     -0.2380459919
C     -2.0028902311     2.2077657037     1.5124314367
C     -3.6400471365     1.2277494329     -0.0005489915
C     -3.0424604103     1.2923610884     1.3042938157


