52

 C     -2.7988588436     0.5291108898     -2.2923884795
C     -2.8830857567     -0.8392101933     -1.8522943793
C     -1.7692417783     -1.6470577938     -2.0434010186
C     -1.5223263072     1.1393385488     -2.5124881281
C     2.2593756434     2.3376528142     -0.8505596305
C     1.0570664481     2.1069987993     -1.5849120128
C     0.9613965296     0.9136691308     -2.4253292147
C     -0.367028929     0.3507005238     -2.7080508777
C     -0.5512161445     -1.0861283842     -2.5885952962
C     -3.1189747058     -1.7215639597     0.4512308061
C     -2.0000538463     -2.6523588282     0.1950198813
C     -3.6125302866     -0.886047414     -0.5588487981
C     -1.3723490151     -2.6421632117     -1.0430767909
C     0.0670880575     -2.8246802384     -1.1424598761
C     -1.1508541089     -2.6869476748     1.3883481745
C     0.2356264325     -2.7895330611     1.2876795148
C     0.8601907724     -3.0012931592     -0.0056759129
C     1.8297732229     -1.4091042664     -2.1384673558
C     0.5419584084     -1.9188974795     -2.1783801977
C     3.4323102816     1.5305734608     -1.0580436376
C     3.2996187166     0.3570160589     -1.8046748237
C     2.0761420617     0.0118710223     -2.4223519851
C     -2.9038314081     -1.1695342053     1.759558388
C     -1.6796062866     -1.7190136089     2.2870845179
C     -2.8919578908     0.2361895378     1.9836363817
C     -3.3977603774     1.0792351449     0.9800984945
C     -3.9131856532     0.4852559435     -0.2190248027
C     -1.6065760658     0.5415874065     2.6510402404
C     -2.6077482387     2.285968384     0.5757268825
C     -1.4006307569     2.5320433749     1.1964119886
C     -0.9081572667     1.689398751     2.3038875679
C     1.1111663887     -1.9003383042     2.0330261804
C     0.5675315486     -0.7462349696     2.6855505946
C     -0.8623998343     -0.6921680284     2.8348337863
C     -3.465724598     1.3029118542     -1.305512298
C     -2.6467582522     2.3813277186     -0.859201983
C     -1.4346491435     2.3232435938     -1.6111477542
C     -0.2355523975     2.8773720861     0.4128729002
C     -0.1949440622     2.6335525988     -1.0056703154
C     0.9285833456     2.5967152095     1.1983849474
C     3.1353560365     1.6161304627     1.2006178278
C     2.1607278424     2.5058547346     0.5995632459
C     2.3766120015     -1.8321680545     1.3305222916
C     3.2030683825     -0.6962419457     1.4527890311
C     2.6312234924     0.4978767951     2.0115804132
C     1.3004590936     0.5182323238     2.5417717306
C     0.5247342102     1.6930788077     2.2813810527
C     3.7076624462     -0.7851327532     -0.9306775619
C     2.7443877756     -1.8310369267     -1.0954987015
C     2.2094854532     -2.4805793923     0.0384595365
C     4.0431724695     -0.2843119554     0.320277308
C     4.0312548929     1.1688698326     0.2353781475


