52

 C     -4.0604910851     -1.4013269397     -0.20185573
C     -2.9473247657     -2.1719884975     -0.7975547531
C     1.1826436079     -2.3967387474     -1.3726267843
C     -0.2137270922     -2.3605314049     -1.2214964079
C     -3.8795160934     -1.3351544431     1.1635555744
C     -0.754792545     -2.7641367162     0.0777707547
C     -2.1264725321     -2.692189555     0.2631302272
C     -2.6421377128     -2.0603231846     1.4748399013
C     -3.7040982154     0.0644101995     1.5223275631
C     -3.9259828325     0.8633373973     0.3179135502
C     -3.1028422061     1.9729024822     0.109836499
C     -2.4329640433     0.1577807176     2.133848308
C     -0.1154606466     1.1215973245     2.2375159272
C     -1.5667259793     1.286720957     1.9540461077
C     -2.0094653138     2.2795710609     1.0347117071
C     2.1190844851     2.029488744     1.7490741591
C     0.7330832469     2.1982711673     1.8506251732
C     -0.3693195494     -1.328150559     2.058359096
C     -1.7906175987     -1.1826161867     2.1551410255
C     2.4536948564     -1.6150532864     1.6191822597
C     1.9644953291     -0.3756929794     2.1884562731
C     0.5086672672     -0.2038009011     2.3474818218
C     2.7847347964     0.7984240205     1.9663057405
C     1.4962100193     -2.5075276173     1.0119923812
C     3.3088305647     -2.4153030658     -0.4283981542
C     2.0104438495     -2.8987087217     -0.2966184134
C     0.1198289303     -2.3863489735     1.2022948266
C     -2.5267505157     2.1768581176     -1.1977404727
C     0.3063829235     3.0095670615     0.6950853994
C     -0.9987277796     3.030486237     0.2947016076
C     -1.2733387776     2.8608874653     -1.0978169296
C     -2.3661869162     1.0746792116     -2.0846908315
C     -3.1071784004     -0.0775878753     -1.8192504251
C     -4.0920930782     -0.0798220494     -0.780073727
C     -0.9332874475     1.0174530651     -2.4245635204
C     -2.3643234263     -1.3667396111     -1.7943943762
C     -0.9452691317     -1.397039307     -1.994652455
C     -0.2076241564     -0.1888853574     -2.4297223354
C     1.379888325     2.91213547     -0.282216836
C     1.090674209     2.2261876689     -1.5200678596
C     -0.29230106     2.2096352152     -1.8968997989
C     1.9442574034     1.1138922098     -1.9259197145
C     1.2685604896     -0.1280811007     -2.3219108496
C     1.9241538177     -1.3667179417     -2.055011722
C     2.5465084279     2.5811750305     0.4456315127
C     3.4935968688     1.7342880069     -0.0749691087
C     3.2572999604     1.0064387335     -1.2968766761
C     3.6231917652     -1.6520303564     0.7583558915
C     4.2098181201     -0.4242867757     0.3497257828
C     3.8533289844     0.7428271756     0.9723320947
C     3.8956294623     -0.2601780976     -1.1209897425
C     3.2740011911     -1.4320444876     -1.5179435418


