52

 C     2.6380250149     0.1520609432     2.415891613
C     2.9843067177     1.345892858     1.8327642422
C     1.2976270358     -0.1461378337     2.7839976551
C     3.7620729422     1.0264968535     0.6226972446
C     3.3609826836     1.9201254661     -0.3618060136
C     2.2316071892     2.7329568275     0.1688668813
C     -1.8144415107     2.2740795079     1.2945221271
C     -0.4731472239     2.5491282744     0.9578593653
C     0.5667265331     2.0275646889     1.8376943418
C     1.936876328     2.2890878194     1.4792206124
C     -3.4267609423     0.6167555951     1.5852372777
C     -2.1516681976     1.1505546109     2.1086712143
C     0.2448469596     0.8050864901     2.5929246202
C     -1.3219949278     -1.1314479614     2.3457452911
C     -1.1244926134     0.2875711452     2.5540282365
C     2.9637885588     1.430327869     -1.6187497115
C     1.6720675725     2.0656029412     -1.9536651927
C     -2.4467418964     2.0571729988     -1.047384058
C     -1.073345026     2.1351394197     -1.4315790128
C     -0.1570971735     2.7296440986     -0.4684254401
C     1.2120912024     2.8048311898     -0.8246777893
C     -2.8503507677     2.3307403616     0.2719425228
C     2.8734937453     0.0527735435     -1.9045866513
C     3.2472355488     -0.9262891293     -0.8831614433
C     3.716914011     -0.4058134189     0.3915655636
C     2.4588681408     -2.1323226871     -0.8488555616
C     1.6226407886     -0.1145007424     -2.6718395401
C     0.9458625156     -1.3026930755     -2.674560741
C     1.4556573893     -2.3813576158     -1.8588902185
C     -0.5570527293     1.1711828341     -2.4023307144
C     0.8483300548     1.1459450144     -2.6034938017
C     -0.5203185018     -1.3131748577     -2.6115482348
C     -1.284121457     -0.1079992211     -2.5719746445
C     1.9410032535     -2.6792670179     0.3915441856
C     2.2165727617     -1.9890988604     1.5910896885
C     3.1681089107     -0.9640221711     1.5911267118
C     0.5892961693     -3.1565453166     0.1360933259
C     1.079919527     -1.541297631     2.425882215
C     -0.1981789478     -1.9865660793     2.1592695421
C     -0.46131346     -2.8575702836     0.9957090435
C     0.3375916285     -3.0083371785     -1.2844688687
C     -0.8832206755     -2.40505309     -1.7485227468
C     -2.9892825551     -1.328538656     -1.2390153258
C     -2.0238542431     -2.3124698826     -0.8826734151
C     -1.7893288632     -2.5479283865     0.523836807
C     -3.2829923773     0.9464214771     -1.5042866771
C     -2.5967352744     -0.2281623124     -2.0581943456
C     -3.9674717696     1.4469694118     0.6101224622
C     -4.2645120053     0.6131222843     -0.5606379178
C     -2.3713812462     -1.6098439117     1.4608396337
C     -3.8919894159     -0.7480547327     -0.2294643815
C     -3.4507293815     -0.7827024709     1.1156300235


