52

 C     -2.2087692251     -2.3009316088     0.8151542328
C     -2.9290005877     -1.3186839194     1.4240088655
C     -3.8936482272     -0.5599822193     0.6309540377
C     -0.8688122579     -2.6290694834     1.3154703492
C     -0.162859353     -1.6963355728     2.1638858109
C     1.2402800623     -1.7261699033     2.1103583737
C     -4.0670560855     0.7148063915     1.1935442229
C     -0.8309940382     -0.4122157074     2.481613224
C     -2.2394752312     -0.3575700242     2.3223746907
C     -2.8895647406     0.8784146554     2.0747764281
C     -3.9365727229     1.667263298     0.1454757637
C     -2.7536327192     2.3999698358     0.3700663394
C     1.4117030962     2.6484029487     0.7267381173
C     0.0419264377     2.6220915154     0.6297636404
C     2.0516263105     -0.5365240909     2.3855382405
C     1.4171277011     0.7543936834     2.3355782111
C     -0.04638552     0.8109795994     2.3397285185
C     -0.7053171442     1.9309455646     1.6902659812
C     -2.1094449472     1.9751080092     1.6144186598
C     2.1450611186     1.8335625087     1.7094303264
C     -2.5396275752     1.5024942002     -1.7791223257
C     -3.6623666893     0.925879247     -1.0938815367
C     -1.6831009291     0.6663261137     -2.4768614932
C     -0.5764621023     2.6273423109     -0.7318113917
C     -1.9429275589     2.4836335068     -0.8370870712
C     -0.2718655744     1.0016889984     -2.5721079921
C     0.2697240294     2.0751673837     -1.8248315864
C     -1.7975887897     -0.7748358933     -2.396485903
C     -2.715893388     -1.3450822768     -1.4527974024
C     -3.6731607472     -0.471137454     -0.8218700893
C     -2.1938553371     -2.4390277679     -0.6595477013
C     -0.4517046278     -1.2967809736     -2.5786743687
C     -0.0300612363     -2.4382710835     -1.8972432909
C     -0.9546744812     -3.0031257054     -0.9629670237
C     2.4832424221     0.9708315172     -2.0171761703
C     1.8596623121     -0.2825388779     -2.3178941362
C     0.4906591789     -0.1996261497     -2.7318158201
C     3.4750690586     2.1831172484     -0.2189148043
C     2.2407682408     2.7159756554     -0.4835361934
C     1.6618948886     2.0984353533     -1.6839226372
C     -0.1922590626     -3.2686655913     0.2612927072
C     1.1747063529     -3.0471342299     0.0221750763
C     3.1004421404     -1.811306173     0.7502644378
C     1.9266019965     -2.4990447328     1.0785763276
C     3.652137185     1.0483843228     -1.1329663997
C     4.0178208846     -0.0571802148     -0.4002064804
C     3.3422748367     -1.3210520327     -0.5617940192
C     2.2968719166     -1.4903084517     -1.5746458152
C     1.3243630854     -2.4913454921     -1.3221059427
C     3.9557383072     0.3252030687     1.0717181563
C     3.4503898687     1.6281098527     1.1526035129
C     3.2970394682     -0.7146211594     1.714523343


