52

 C     -2.4176153617     -0.3716636511     -2.1849561163
C     -3.3185354179     0.7487426653     -1.9237037562
C     -0.188335177     -1.2787924537     -2.2633504791
C     -1.0378981903     -0.1544754563     -2.427689845
C     0.974609959     1.2718887785     -2.0521025176
C     -0.4467599095     1.1337100001     -2.0911461503
C     -1.3082897617     2.0165912728     -1.2543254295
C     -2.6893181637     1.8960398118     -1.2365426262
C     1.4976825848     2.2812391569     -1.1581079919
C     1.2415305697     -1.1610439411     -2.2534407187
C     1.8796196429     0.116690654     -2.3021896984
C     2.8411644497     2.3165087444     -0.7545946557
C     3.2555942918     0.1692793304     -1.8743820676
C     3.7561548547     1.3457897362     -1.1625396789
C     3.8153691213     -0.9548171807     -1.1639120505
C     -4.4105812235     0.3333500374     -1.1761590002
C     -4.4937493951     1.1887927793     -0.0000420209
C     -3.4460567709     2.129703057     0.0010172482
C     0.6751599784     2.6044925678     0.0012187943
C     -0.67200186     2.4341360492     0.0010263004
C     -3.3155327678     0.7582043984     1.9370864977
C     -4.3960510786     0.339586571     1.1673624835
C     -2.4185143882     -0.3639724579     2.1795789812
C     -1.3090970346     2.0207117243     1.2585256226
C     -2.6882501478     1.9019466881     1.2492444063
C     1.5009601474     2.2824259575     1.1635176341
C     0.9791638906     1.2715261078     2.0547050729
C     -0.4432756587     1.1327691945     2.0924711401
C     -1.0339524513     -0.1517567934     2.4217673794
C     -0.1869686505     -1.2788376547     2.2607287945
C     -4.0503721414     -1.0314528285     0.6912351361
C     -4.0549377685     -1.0316001002     -0.6969276817
C     -0.6021396075     -2.3388981973     -1.3729121238
C     -2.8553757307     -1.4808401316     -1.3881781164
C     -1.8668957503     -2.288368417     -0.7353881613
C     -2.8568739445     -1.4782227117     1.3853890046
C     -0.6023410956     -2.3398197022     1.3721243506
C     -1.8664589092     -2.2865512335     0.7351947544
C     0.6026533176     -2.765470986     0.6945710617
C     0.6023171506     -2.7657567357     -0.6970148604
C     2.9732967591     -2.0280353785     -0.7480091319
C     1.7589658495     -2.2033174808     -1.3917175911
C     1.7598054961     -2.2041647768     1.3880798264
C     3.8179427542     -0.9569931858     1.1598505547
C     2.9743927448     -2.0282067891     0.7437073744
C     2.8418264827     2.3156694129     0.7587358412
C     3.75958159     1.3444367108     1.1676155978
C     3.2589819933     0.1689627944     1.8736977769
C     1.8823233862     0.1161013225     2.3019096816
C     1.2429034346     -1.1612101415     2.249544818
C     4.542169633     0.9243714409     0.0006952301
C     4.5419782747     -0.459378579     -0.0012588942


