52

 C     3.5795262842     0.1634987001     0.7009151537
C     2.8548624506     -0.7198222674     1.6294167671
C     3.5537763241     -0.1698538353     -0.6911834342
C     2.4995246342     -1.9968735871     1.2470731017
C     1.1631496437     -2.4875006495     1.5672573902
C     0.1757623621     -1.6818725219     2.2112582855
C     -1.1924624694     -2.0648095494     2.0143876222
C     -2.7952608157     -2.7940718691     0.4124299129
C     -1.5572216409     -3.1257145637     1.0635906917
C     3.2580562941     1.4891011739     1.0610235126
C     2.2119478454     1.4567459558     2.1047441311
C     1.2176911823     2.4359304664     1.8250906361
C     0.4778002508     -0.262662194     2.4781677419
C     1.8680412426     0.1266184114     2.3452197646
C     -2.2110251156     -1.0764116561     1.9264017381
C     -1.9428537858     0.3139043697     2.0285210968
C     -0.5614630269     0.7483584254     2.3436020121
C     -0.1739791805     2.1282610875     1.9889119276
C     -1.0627530253     2.9145909985     1.1841617441
C     2.8314787901     2.4242676295     0.114378897
C     2.4741543364     1.9956507938     -1.2176433427
C     2.807417165     0.7083311864     -1.6064331322
C     1.6665526994     3.1104272301     0.6362172996
C     -0.5906095023     3.492185609     -0.0577705998
C     0.7442637261     3.3620466444     -0.4034896505
C     1.1399492525     2.5026161671     -1.525018835
C     -1.221103471     2.0748486279     -1.9777251622
C     0.1425442986     1.6962888916     -2.1697379149
C     0.4490252884     0.2834772752     -2.4651103315
C     1.8187517685     -0.1113438283     -2.3364720171
C     2.1452781497     -1.4572992225     -2.0908006769
C     -1.5732336957     3.1096182703     -1.047821474
C     3.1963518864     -1.489703016     -1.0324765809
C     2.8333726208     -2.4488193738     -0.0945161233
C     1.6424197794     -3.0950709061     -0.6015222054
C     -0.6133638466     -3.4603804457     0.0987892226
C     0.7370416054     -3.3173439332     0.4338674248
C     -2.2865426475     1.078000989     -1.9336799317
C     -1.9946821796     -0.3207333265     -2.0741861583
C     -0.6058459839     -0.7384045048     -2.3498068556
C     -0.2197693819     -2.1081814674     -1.9845897571
C     1.1720257785     -2.4206475354     -1.8241679109
C     -1.1241263713     -2.9236244481     -1.2122879686
C     -3.2755293036     1.5524149992     -0.9891741198
C     -2.8748032675     -1.2139958533     -1.3624467469
C     -2.4497691905     -2.5349283479     -0.9962082101
C     -2.7952949128     2.7705189837     -0.4267435614
C     -2.8316432064     1.1884502622     1.2956239179
C     -2.426981852     2.4862006814     0.9384114098
C     -3.5483743977     -0.6861036895     -0.1713026784
C     -3.1876805544     -1.5636602679     0.9059697485
C     -3.5443928348     0.6574990304     0.0868742289


