52

 C     2.9000708344     -1.4894873818     -1.1228641182
C     2.4577552267     -2.4499064955     -0.1969435229
C     1.2893951941     -3.216974075     -0.5192879173
C     3.341852339     -0.1533499987     -0.6738824962
C     2.340173071     -2.0718263218     1.2064490671
C     2.8135804997     -0.8356328702     1.6341950963
C     3.3417620835     0.1538162297     0.6741575598
C     0.4755773707     -3.3140151271     0.6575792471
C     -0.9121839166     -3.2016628189     0.3007708547
C     -1.771432993     -2.5765098684     1.2048802842
C     1.0450551006     -2.5597259602     1.7065708812
C     0.7188656546     -0.4387702925     2.9382510475
C     0.1882309059     -1.6945041676     2.5010186413
C     -1.212712325     -1.7337322752     2.27653027
C     2.054537104     -0.1000385973     2.5970158938
C     -2.9134123871     -1.9423420023     0.6875960526
C     -3.1506633297     -0.7241177064     1.4853173751
C     -3.6534964393     0.2680233101     0.682456563
C     -0.0640262676     0.7899877618     2.8687587627
C     -1.4186981719     0.7782131479     2.4568100299
C     -2.0174657888     -0.5318314035     2.3459144816
C     -3.0208698625     -1.589679123     -0.6771702496
C     -1.9220076701     -1.8772085898     -1.5737435418
C     -0.9690714217     -2.8316250494     -1.1010126093
C     0.4163378866     -2.8490186139     -1.5894289678
C     0.8446320298     -1.8712157709     -2.4976435277
C     -3.6533538964     -0.268534042     -0.6827233221
C     -3.1506912894     0.7236707642     -1.4855974092
C     -2.0173623857     0.5315614739     -2.3460873031
C     -1.4183964522     -0.7784151329     -2.4569415487
C     -0.0636970868     -0.7899935043     -2.8687636121
C     2.142218737     -1.3054631091     -2.3197310258
C     2.0547082492     0.1003277507     -2.5968201674
C     2.3399648461     2.0721394126     -1.2062530618
C     2.8136195271     0.8360427237     -1.6339627243
C     -1.2127958784     1.7335596792     -2.2766256265
C     0.1881797084     1.6945224733     -2.5009964281
C     0.7190309172     0.4388824585     -2.9381886287
C     1.0448168238     2.5598822696     -1.7064997306
C     -1.7717262081     2.5762441155     -1.2050083316
C     -0.9126206692     3.2015370032     -0.3008352084
C     0.4751545094     3.314042814     -0.6575389115
C     -2.9136790148     1.9419627095     -0.6878442639
C     0.8441699517     1.8713282347     2.497700544
C     0.4158176871     2.84908702     1.5894620015
C     -0.9695614984     2.8314841168     1.1008969806
C     -1.9224081116     1.8769219205     1.5735980161
C     -3.0211294672     1.5892391829     0.676912828
C     2.1418572547     1.3057739193     2.319903623
C     1.2889113151     3.217155729     0.5194091674
C     2.45740901     2.4502785172     0.1971524476
C     2.899768694     1.4898955604     1.1230965385


