52

 C     4.0834544337     -0.0609563242     -0.1724375967
C     3.5606202056     -0.1315355469     -1.4686131137
C     2.9547719619     -1.4745301201     -1.6385140458
C     -0.3552270577     -3.0319903846     0.3614914993
C     0.7703566799     -2.8371274781     -0.486693602
C     2.9144588764     2.0748708286     0.1405057724
C     2.4267512376     2.020686548     -1.2437862663
C     3.5422560391     0.9623843935     0.7090405818
C     2.6173596546     0.8318684573     -1.9516648549
C     1.4470509483     0.1074591429     -2.4581810111
C     1.1213966103     2.6511214029     -1.2764580904
C     0.0105486384     2.0466160688     -1.9450597672
C     0.1519819261     0.6753884283     -2.4728377757
C     -1.8900300975     -2.3308712562     -1.4168154272
C     -0.7960889003     -1.6467728639     -2.0625231978
C     -0.9961425878     -0.2425053895     -2.4845348169
C     -2.2952106433     0.3377334235     -2.3197784388
C     0.5450370789     -2.0903037076     -1.7256592912
C     1.6516578083     -1.3024624384     -2.1857490858
C     -1.6340525445     -2.9981453364     -0.1827467219
C     1.8874993938     2.7048910186     0.8937243084
C     0.8898324537     3.2407948907     0.0076981742
C     -1.4958717869     2.9651934282     -0.1250665786
C     -0.3732136622     3.1965802365     0.6452386011
C     -2.3984507988     1.661985825     -1.8030202414
C     -1.2920745103     2.4515250763     -1.4925887551
C     2.8542945748     0.2608735976     1.7922603224
C     3.0954319502     -1.1507284906     1.5523029758
C     -0.1872437332     2.4337781214     1.891934528
C     1.2132382484     2.0502323709     1.9667088396
C     1.5999803011     0.7104392371     2.3152350467
C     -1.1757170527     1.5521922751     2.2781411027
C     -0.8173405931     0.1827172905     2.6510986292
C     0.5228905681     -0.2705801994     2.577314256
C     3.9446213733     -1.3662007018     0.4520438185
C     1.9943315786     -2.6838729856     0.2138152903
C     3.1707182451     -2.1948727566     -0.4535700289
C     0.7222358546     -1.6601236765     2.1140362329
C     1.9501850703     -2.0349024045     1.5094184583
C     -0.4057241648     -2.4021535534     1.6843466158
C     -3.0016589177     0.1713951134     1.7071548682
C     -1.9649237443     -0.6520822142     2.3420076117
C     -1.7589816585     -1.9749674258     1.9177645668
C     -3.7986728497     -0.3613508259     0.655992924
C     -3.3442185832     1.6649658325     -0.6585613413
C     -2.6518299958     2.2829776122     0.4362308253
C     -2.4750199128     1.5274853133     1.6168731216
C     -3.9089611956     0.4202812092     -0.5534708612
C     -3.1698117456     -1.680137022     -1.2347456852
C     -3.3628196754     -0.407066737     -1.6766901116
C     -2.5722135696     -2.4855907585     0.8369352211
C     -3.52145173     -1.7146065448     0.2204825149


