52

 C     3.0284664826     -1.782644646     -0.1118115321
C     3.5821688655     -0.65386361     0.5692303032
C     3.7355874132     0.5837629097     -0.1508777152
C     1.9810023174     -2.5778659585     0.4944048295
C     1.3660351512     -2.1336699645     1.7059025512
C     -0.0295984185     -2.3801441155     1.9110141885
C     2.8748245256     1.1396406946     1.9311401119
C     3.2801869011     1.6894844135     0.7200644043
C     1.8804871368     -0.9360822646     2.336511404
C     3.047425027     -0.3190951158     1.8464548549
C     1.1114251457     2.0170557321     -2.0567639756
C     2.3197538947     1.9840899251     -1.3732517251
C     2.3917117391     2.5316158593     -0.0165117804
C     1.5791540242     1.4021796446     2.4659643985
C     0.7906082261     2.38838445     1.8733610502
C     1.204386061     2.9689569489     0.6026480188
C     -0.0007958951     3.1518114457     -0.178763986
C     -0.041258525     2.6910648245     -1.4996571306
C     -0.9066891922     -1.3927294576     2.4457267035
C     -0.4432155887     -0.0642803221     2.7503738051
C     0.9574420793     0.1096809053     2.78493445
C     2.6414149296     -0.3839891188     -2.1168226293
C     1.344269684     -0.3381594546     -2.7812888761
C     3.1354541832     0.7598327857     -1.4122562072
C     0.6085605083     0.8289911258     -2.7632603987
C     -0.841676607     0.8041286537     -2.6651931809
C     -1.5691139641     -0.4226575104     -2.4687373587
C     -2.8405220843     -0.3189975784     -1.8196809993
C     -2.4352406916     2.0698577235     -1.2783452865
C     -1.238270365     2.0178891148     -1.9963151079
C     -3.3098977417     0.9536466864     -1.3557924806
C     2.7411488619     -1.6533539848     -1.5046364819
C     1.5340600607     -2.410498711     -1.7987058517
C     -0.2547568223     -3.2245531791     -0.4305179411
C     1.1084646302     -3.0519662538     -0.6065443238
C     -0.7778364166     -1.6599107704     -2.2937199579
C     0.6411982212     -1.6152632937     -2.5423475833
C     -1.2133693715     -2.6033568862     -1.3153505266
C     -0.7982426519     -3.092334577     0.9061354421
C     -2.1312041478     -2.6876712029     0.8809040676
C     -3.8160883145     -0.5461440123     0.3354030677
C     -3.2515922269     -1.3032239178     -0.8048520453
C     -2.4285952737     -2.3627290723     -0.5164533279
C     -3.9104612099     0.7696902874     -0.053562746
C     -1.1499024443     2.8928867018     0.6805193762
C     -3.197583174     1.6405860264     0.8916322296
C     -2.3810062374     2.5183083448     0.138802148
C     -2.238449839     -1.6188654421     1.8576200449
C     -3.0734017149     -0.5555978234     1.6074587764
C     -2.6361266481     0.8285527636     1.9087630351
C     -1.3099322788     1.0889476162     2.3892275736
C     -0.6604082248     2.2586126602     1.8778243211


