52

 C     -0.1420324449     2.9983487717     -1.2976890364
C     1.1281642874     2.537798536     -1.6858565684
C     2.2024596036     2.6405699079     -0.7447255156
C     -1.3133574735     2.2609201801     -1.6870648357
C     -1.1782535412     0.9742488778     -2.3008974884
C     -2.277318884     0.0697424836     -2.1493119536
C     2.6009394592     0.7286261275     -1.9873880661
C     3.1399455594     1.5655811971     -0.9557511618
C     2.8105812218     -0.6399141161     -1.9245340479
C     0.1615334249     0.4054999558     -2.5329187691
C     1.2787479354     1.2590751758     -2.3549223318
C     1.6779574601     -1.5489363111     -2.1577854318
C     0.3609181182     -1.0593033894     -2.3789312726
C     3.5775785335     -1.1697396246     -0.8164030945
C     3.6910935035     -0.3888970689     0.3893453269
C     3.4774277279     0.993901938     0.3055198652
C     3.0685345857     -2.4596253596     -0.4985336261
C     -2.0744946394     -1.343177697     -1.9905946107
C     -0.7595730673     -1.8831970186     -1.9078917744
C     1.8895940343     -2.6760146262     -1.2926004893
C     0.6265015614     3.146649093     1.0322444657
C     1.938419662     2.7922897611     0.6467833835
C     2.6352942376     1.689079269     1.3042493135
C     3.0034927031     -1.1776304597     1.4315662439
C     2.0792229598     -0.5235062293     2.263019037
C     1.9417451879     0.9258348241     2.2375264305
C     0.5481806259     1.234825282     2.5679632679
C     -0.0924597399     2.3386791117     2.0482843781
C     2.6476963343     -2.453313384     0.8575900828
C     -0.3243824681     3.4692398747     0.048132201
C     -1.6265444748     2.9930189403     0.4809165331
C     -3.2746362752     1.480073869     -0.3638640386
C     -2.3206415999     2.4418895968     -0.6215851671
C     -3.3591638293     0.8408883385     0.9411185236
C     -1.5023417892     2.2511872914     1.684699192
C     -2.2775252469     1.0489299781     1.8730864415
C     -4.0208882253     -0.6965845264     -0.7609925277
C     -3.4501683034     0.4300211171     -1.3476077211
C     -3.1744135433     -1.5926053209     1.1963553146
C     -3.8633139502     -0.4906049459     0.6736801584
C     -0.1787217261     -0.0212144759     2.7126160418
C     -2.0188280011     -1.4359652992     1.989707542
C     -1.5727478087     -0.1296805745     2.4121599708
C     1.274772127     -2.8891507735     0.9161345525
C     -1.0190934322     -2.4007021144     1.5213796136
C     0.3611006819     -2.2821127691     1.8249637355
C     0.7675431149     -1.0870523322     2.5137913661
C     -3.1486106277     -1.8150284838     -1.1118599378
C     -2.7838937123     -2.474754646     0.0510024985
C     -1.4568412716     -2.900534348     0.2432629222
C     -0.5039111696     -2.8629789179     -0.8371894314
C     0.8247225946     -3.114704686     -0.4601995043


