40

 C     0.7169962549     -1.1889855556     2.6551279557
C     -0.7481510633     -1.252595873     2.4276710166
C     -0.9886422683     -2.2799095399     1.3702072694
C     1.2852105335     -2.1311423882     1.8331647375
C     0.2916323083     -2.783714583     0.9892946333
C     2.3262177382     -1.556864123     0.9893310341
C     1.457219551     0.0771574341     2.4277636581
C     2.4784304823     -0.1893190773     1.3704593324
C     0.7480346913     1.252824295     2.4275894385
C     -1.4573360758     -0.076929023     2.4277009947
C     -0.7171235971     1.1892352272     2.6549819977
C     -2.4784963957     0.1894482866     1.3703227119
C     -1.9384688259     -2.0458819266     0.3571758334
C     -2.7145290184     -0.7600951054     0.3572332569
C     -1.5568873642     -2.3262876844     -0.9891298062
C     0.7601207529     -2.7145371434     -0.3571168604
C     2.0459074664     -1.9384765613     -0.3569855341
C     -0.1893512524     -2.4785277808     -1.3702783975
C     2.2800057098     -0.9886735064     -1.3700226936
C     2.7145120755     0.7601287709     0.3572919048
C     2.7837843258     0.2916090422     -0.9891040406
C     0.9885764727     2.2800376675     1.370039819
C     1.9384517244     2.0459153827     0.3570760765
C     -1.2852981554     2.1313148244     1.8329027039
C     -2.3262653204     1.5569576346     0.9890731723
C     -0.2916794435     2.7838074475     0.9890189428
C     -2.0458902626     1.9384432936     -0.3572658961
C     -0.760103721     2.7145042463     -0.3574087951
C     -2.7837369076     -0.2917019247     -0.9892099508
C     -2.1311840412     -1.2853405732     -1.8330240849
C     -2.2799401443     0.9885450117     -1.3702249145
C     0.0771015696     -1.4573924422     -2.4276618862
C     1.252767649     -0.7482065176     -2.4275654129
C     -1.1890461991     -0.7171851916     -2.655049666
C     -1.2526511497     0.7479782721     -2.4276953076
C     2.1312719133     1.2851684431     -1.8330429359
C     1.5569348567     2.3261948579     -0.9892740862
C     0.1894167973     2.478399529     -1.3705026774
C     1.1891734779     0.716935733     -2.6550602918
C     -0.076985145     1.4571641211     -2.4278022518


