40

 C     -2.5810862681     2.0385819956     -0.0000007684
C     -2.7442977677     1.2088384664     -1.1869671248
C     -3.3084503341     -0.0000095209     -0.7629886661
C     -2.7442985172     1.2088385629     1.1869653464
C     -3.3084508721     -0.0000093155     0.7629863912
C     -1.4519531457     1.2246746296     1.8415843953
C     -1.3648097075     2.7033354398     -0.0000002696
C     -0.6828267436     2.3429510901     1.2438257935
C     -1.4519519631     1.2246747992     -1.8415849867
C     -0.6828261866     2.3429508697     -1.2438265041
C     -0.7538647858     -0.0000023743     -2.1590009472
C     -2.7442908183     -1.2088543969     -1.186967502
C     -1.4519446112     -1.2246831978     -1.8415857293
C     -2.744291727     -1.2088543025     1.1869655157
C     -2.5810746772     -2.0385973483     -0.000001039
C     -0.753866318     -0.0000020112     2.1590004261
C     -1.4519460649     -1.2246833769     1.8415843331
C     0.753864859     0.0000020609     2.1590010669
C     0.6828120784     2.3429550594     1.243826659
C     1.4519447138     1.2246833796     1.8415853388
C     0.6828126295     2.3429551964     -1.2438259501
C     1.3647936333     2.7033438299     0.0000002425
C     0.7538664063     0.0000022399     -2.1590005601
C     1.451945952     1.2246830994     -1.841584715
C     1.4519533463     -1.224674904     -1.8415840951
C     -0.6828118229     -2.3429552846     -1.2438264452
C     -1.3647938024     -2.7033439195     -0.0000006951
C     -0.6828130226     -2.3429550682     1.2438261663
C     0.6828270519     -2.3429509574     -1.2438260274
C     1.4519519342     -1.2246746322     1.8415854551
C     0.6828258471     -2.342951103     1.2438262798
C     1.3648097152     -2.7033355183     0.000000703
C     2.7442986819     -1.2088384243     -1.1869651923
C     2.7442977443     -1.2088384637     1.1869672902
C     2.5810862779     -2.0385819514     0.0000010614
C     2.7442908733     1.2088544074     1.1869673534
C     2.5810745163     2.0385973675     0.0000007529
C     2.7442916197     1.2088544438     -1.1869656587
C     3.3084503683     0.0000094992     0.7629886897
C     3.3084509074     0.0000096343     -0.7629863842


