40

 C     -3.3517896848     -0.8276637293     -1.1720447902
C     -3.7284118373     -0.1324255107     0.0019803522
C     -3.3510904475     -0.8281909067     1.1770974806
C     -2.4811001506     -1.9170625993     -0.7100053743
C     -2.480318131     -1.9169753635     0.7136613824
C     -1.213984876     -1.816249548     -1.377761584
C     -2.4754855273     0.0625102734     -1.8772323672
C     -1.2249982189     -0.5715505064     -2.1495765084
C     -3.1357065244     1.2254947286     0.0014571247
C     -2.43174955     1.3845959902     -1.2391916422
C     -2.4736445214     0.0619973132     1.8794003204
C     -2.4301235779     1.3839592474     1.2410003859
C     -1.2121424103     -1.8164503796     1.3795735191
C     -1.2218817429     -0.5718671183     2.1510292715
C     -0.0005436592     -2.2131927169     -0.7399644725
C     0.0005830004     -2.2132908955     0.739670478
C     1.2121743393     -1.816240883     -1.3798126426
C     -0.0013442009     0.1865189174     -2.3025243744
C     1.2218924198     -0.571556344     -2.1510996893
C     -1.1892436544     2.0630648243     -1.2274910831
C     -0.0014006313     1.5576946274     -1.9268224633
C     -1.1877749331     2.0628295431     1.2282278984
C     -0.7203514944     2.6229322039     0.0005191209
C     0.0013391413     0.1862116066     2.3025530085
C     0.0013705586     1.5574391663     1.9270301068
C     1.2140166007     -1.8164067644     1.3775210803
C     1.2250081703     -0.5718146997     2.1495002468
C     2.480352879     -1.9168337375     -0.713913302
C     2.4811359899     -1.9171073971     0.7097480001
C     2.4736425617     0.0622957911     -1.8793922977
C     3.3511042362     -0.8279662156     -1.1772061113
C     1.1877379225     2.0630169398     -1.2279545137
C     0.7203020274     2.622945774     -0.0001717958
C     1.1892046878     2.0629230513     1.2277646121
C     2.4300989516     1.3841759191     -1.2408192613
C     2.4754880198     0.0623077372     1.8772373334
C     3.3518098684     -0.8277544214     1.1719364985
C     3.7284166422     -0.1323504404     -0.0020012866
C     2.4317239052     1.3844778992     1.2393727149
C     3.1356858512     1.2255596238     -0.0012973752


