40

 C     3.4265198148     -1.1368958467     -0.2007349966
C     3.6131272018     -0.0000166691     -1.0448323621
C     3.4264764162     1.1368625028     -0.2007644411
C     3.09891896     -0.7259823941     1.1314688693
C     3.098918616     0.7260092782     1.1314633538
C     1.9158310699     -1.4334760069     1.5741341745
C     2.2932410294     -1.9254469552     -0.6618723827
C     1.4933830848     -2.3189298441     0.4541942641
C     2.4024647303     -0.0000185133     -1.8500488941
C     1.6572929649     -1.2443160829     -1.7631567651
C     2.2932195441     1.9254530439     -0.6619372112
C     1.6572845577     1.2443005936     -1.7632035918
C     1.9158334339     1.4335123677     1.5740951605
C     1.4933772351     2.3189357622     0.4541258201
C     0.8831075704     -0.7378081715     2.217534904
C     0.8831050703     0.7378665146     2.217518248
C     -0.5105660686     -1.16981837     2.1269759923
C     0.1526608985     -2.53756392     0.2172971392
C     -0.8590570223     -2.203573465     1.2252098654
C     0.2454874477     -1.2636949098     -1.9128392721
C     -0.4404462569     -2.2445254627     -1.0986230718
C     0.2454832058     1.2636626133     -1.9128798433
C     -0.4964307353     -0.0000250526     -2.2280338742
C     0.1526445313     2.537564344     0.2172323517
C     -0.4404576654     2.2445030973     -1.0986727981
C     -0.5105655891     1.169868732     2.1269519308
C     -1.3823752036     0.0000244536     2.2129088695
C     -0.8590652726     2.2035992541     1.2251589937
C     -2.6679293394     0.0000148869     1.5856201589
C     -2.1152105854     -2.152689863     0.5625013315
C     -1.8280635459     -2.1539313844     -0.9196681567
C     -3.0638759011     -1.1697585267     0.8092894689
C     -1.9066275658     -0.0000286378     -2.0936281726
C     -2.6056761877     -1.1766951851     -1.5364289284
C     -3.5245725049     -0.6863196551     -0.5159511616
C     -1.8280775018     2.153909712     -0.919716444
C     -2.1152211007     2.1526933402     0.5624550052
C     -3.0638889959     1.1697706704     0.8092656929
C     -2.6056843524     1.1766561286     -1.5364466114
C     -3.5245879884     0.6863066206     -0.515964615


