40

 C     -3.6377439083     -0.2963258351     -0.3148999203
C     -3.0782799069     -1.5380066256     -0.0879301244
C     -2.3394558889     -1.5373429396     1.1824388689
C     -3.2566983208     0.5385809361     0.8202943528
C     -2.3913820317     -0.2244502021     1.7376921284
C     -2.7542900966     1.7463254472     0.3109204542
C     -2.9159110766     0.2533316118     -1.4866999236
C     -2.472635879     1.5192563872     -1.1698283011
C     -2.0811398532     -1.8614125305     -1.0782957474
C     -1.9020027222     -0.726135554     -1.9423335053
C     -1.1166230553     -2.2726855919     1.0171645953
C     -0.960548853     -2.5068137839     -0.4436577938
C     0.002297002     -1.8706262648     1.728463124
C     -1.1394724745     0.3368784326     2.2449964564
C     -0.0304408912     -0.5849186669     2.4272802079
C     -1.596756831     2.2989660698     0.8300298
C     -0.78672849     1.6878866527     1.8528776697
C     -1.1255182061     1.9410561339     -1.435597451
C     -0.6806431855     2.6370239843     -0.2673239327
C     -0.573227335     -0.3324436953     -2.2944349275
C     -0.1709402079     1.0820468233     -2.1181247187
C     0.2788455725     -2.3462965172     -1.0126420119
C     0.4662111535     -1.343784067     -2.074243056
C     1.3633344476     -2.0911556562     1.188167018
C     1.5134175974     -2.3625677754     -0.1979706678
C     1.303156356     -0.1112397301     2.3912205135
C     2.2108820066     -1.0874658827     1.7632258402
C     0.5993936223     2.0407007477     1.5506281406
C     0.6438962615     2.6070268838     0.1889163339
C     1.6525386142     1.1992566169     1.9384978485
C     1.2105496367     1.3829927669     -1.8768919833
C     1.6261512453     2.1629373275     -0.7230227112
C     1.8211494444     -1.0041198934     -2.0481181995
C     2.5262151735     -1.6894117263     -0.9470005227
C     2.2493199927     0.3683735837     -2.055728069
C     3.1842626455     -0.4065161322     1.0196719931
C     2.8231303288     1.0381383407     1.0812954995
C     2.8543695376     1.5573001696     -0.216249932
C     3.3830413722     -0.726305971     -0.3554007999
C     3.2982772033     0.5219451253     -1.1273865455


