40

 C     -3.4192446615     0.4350642787     -1.1925628019
C     -3.5755930898     -0.7834536604     -0.4400661618
C     -3.4210782644     -0.5014695046     0.943205686
C     -3.0219095232     1.4746771038     -0.2084295456
C     -3.0152470149     0.9070397331     1.0750847087
C     -1.8092372625     2.1107315714     -0.6527899668
C     -2.2528602478     0.2479421653     -1.9501151477
C     -1.2967013494     1.3245190355     -1.7801774242
C     -2.5901388585     -1.7641534341     -0.8182261577
C     -1.7357429504     -1.1379604275     -1.7929814283
C     -2.3906336286     -1.3112352731     1.4919108785
C     -1.9487442796     -2.2126722128     0.4140491928
C     -1.7957954357     0.9208338495     1.8767993064
C     -1.3868823166     -0.4733493209     2.0981456817
C     -0.8790239939     2.5571240303     0.3041008484
C     -0.8045932718     1.8513693215     1.6044590873
C     0.4435459541     2.7081170161     -0.1228805676
C     0.0960096908     1.1354189514     -1.9859450017
C     0.9544483983     2.0974216276     -1.3215545527
C     -0.3386984668     -1.3681804568     -1.8295784725
C     0.6228244165     -0.2568183401     -2.159084382
C     -0.619679569     -2.5000507501     0.3646501425
C     0.1333300605     -2.3718296248     -0.8918956892
C     0.0180416854     -0.8339232145     2.1172204694
C     0.3251339597     -2.0559566407     1.4204471802
C     0.6041825325     1.5769565836     1.8843653441
C     1.3604104319     2.3785737078     0.9669885685
C     1.0630821428     0.2245228281     2.152734317
C     2.3270963566     1.7959114644     -1.0707848317
C     2.574047426     1.9699978099     0.4262250459
C     2.0059040619     -0.4853131625     -1.9381796011
C     2.8969222319     0.6065509165     -1.4637924301
C     1.4875444832     -2.468496479     -0.5731949977
C     1.618253052     -2.288353243     0.9251037455
C     2.4428943463     -1.6703221157     -1.1895087235
C     2.4236655543     -0.1122573115     1.723178183
C     3.1992796439     0.8215321634     0.8899187995
C     3.6629118325     0.0945059905     -0.3081155286
C     2.6747076334     -1.4161073329     1.159111618
C     3.3675672901     -1.2269076432     -0.147835391


