40

 C     -3.2720838236     -0.9718348561     -0.5294823015
C     -2.3133386828     -1.9939949071     -0.7957312917
C     -1.7838523292     -2.4432969856     0.4304997813
C     -3.2039415082     -0.6247577888     0.916062719
C     -2.234331361     -1.4730173631     1.4780034486
C     -3.0101292028     0.7587248125     1.021395798
C     -2.9521982227     0.1814345316     -1.2650788501
C     -3.0132644352     1.3009111785     -0.3812806628
C     -1.3661463622     -1.4857703534     -1.7948046403
C     -1.6733698313     -0.0740312919     -1.9906032856
C     -0.0423223598     -1.8888210864     -1.7178746457
C     -0.414506017     -2.7052214708     0.5857167435
C     0.4145246612     -2.7053169756     -0.5852604085
C     -1.0509320367     -0.9764177695     2.0961062116
C     0.04233551     -1.8885312123     1.7181934204
C     -1.8656781564     1.3073031102     1.6877193648
C     -0.7959723584     0.4490339578     2.1780424157
C     -2.0476434772     2.2665736248     -0.4749218135
C     -1.4565626763     2.4373124137     0.8643163988
C     -0.6308781741     0.9131741137     -2.0725358293
C     -0.9139361472     2.175463731     -1.3914689384
C     1.0509398054     -0.9767655407     -2.0959417748
C     0.7959694034     0.448671904     -2.178117971
C     1.7838699815     -2.4433560327     -0.4300868233
C     2.2343433446     -1.4732525327     -1.4777578316
C     1.3661566293     -1.4854566241     1.7950557547
C     2.3133533616     -1.9938463904     0.7960677842
C     0.6308715111     0.9135279373     2.0723833387
C     1.6733700558     -0.0736838065     1.990615773
C     -0.1579805659     2.8470779883     0.7355560244
C     0.1579605937     2.8469548751     -0.7360347853
C     0.9139193755     2.1757056287     1.3911036454
C     1.86566771     1.3070298687     -1.6879390032
C     1.4565445548     2.4371786696     -0.8647276007
C     2.0476267137     2.2666674705     0.4745395152
C     3.2039446277     -0.6248896252     -0.9159572735
C     3.2720907043     -0.9717224075     0.5296465743
C     2.9521969127     0.1816681404     1.2650483947
C     3.0101243729     0.7585737644     -1.0215245498
C     3.0132538987     1.3009962998     0.3810611744


