40

 C     -3.6743357938     0.7489507394     0.4844889458
C     -3.5863133856     -0.5934348096     0.8635089732
C     -3.3052442895     -1.3724436793     -0.2800316138
C     -3.3297812528     0.8366390107     -0.9805334289
C     -3.0519086758     -0.4815882653     -1.4491975739
C     -2.3226259821     1.7961191953     -1.1031079378
C     -2.6588549792     1.458800174     1.1989373781
C     -1.9543821041     2.2523665375     0.2903054456
C     -2.4347918541     -0.7754146792     1.7942680271
C     -1.8382234227     0.4796808728     2.004193899
C     -2.1644851545     -2.1688931266     -0.0442071107
C     -1.6044809229     -1.8475427368     1.2862114428
C     -1.7493186372     -0.8086219892     -1.9341882384
C     -1.2915212059     -2.0029933819     -1.1640943901
C     -1.0815840853     1.5224642581     -1.7324492901
C     -0.7238103925     0.1911696284     -2.1775193456
C     -0.5693080119     2.4051648113     0.3735765563
C     -0.0449753989     2.2367813967     -0.9710980806
C     -0.402070997     0.6098297174     2.0776134901
C     0.2165049209     1.8069812198     1.4640594522
C     -0.2165361331     -1.8075888973     1.4634313823
C     0.4020465066     -0.6106214906     2.0774610075
C     0.0450229526     -2.2364753374     -0.9718309881
C     0.56927377     -2.4053041807     0.3727458992
C     0.7238568728     -0.1904570555     -2.1775779385
C     1.0816374478     -1.5218996384     -1.7329554374
C     1.2915281059     2.003377584     -1.1634206239
C     1.7493439882     0.8092825966     -1.9339102031
C     1.6044561666     1.8470145983     1.2869063491
C     2.1645389069     2.1688903372     -0.0434386793
C     1.83816297     -0.4804365605     2.0041280046
C     2.4347191072     0.774773758     1.7946105131
C     1.9544131794     -2.2523912464     0.2895675181
C     2.3226783374     -1.7957023854     -1.1036812684
C     2.6588135405     -1.4592349437     1.1985136646
C     3.0519333206     0.4821394694     -1.4490036491
C     3.305299474     1.3726921238     -0.2795321021
C     3.5862430169     0.5931659663     0.863771695
C     3.329811271     -0.8362246688     -0.9807941706
C     3.6742708237     -0.7490129225     0.4842724265


