40

 C     2.9639401223     0.6570436279     0.3536071539
C     2.5226746558     1.6210160486     -0.5141522573
C     2.2034953827     0.9772379914     -1.8227318007
C     2.9639401223     -0.6570436279     -0.3536071539
C     2.3570686234     -0.4575841137     -1.6731346577
C     2.5226746558     -1.6210160486     0.5141522573
C     2.3570686234     0.4575841137     1.6731346577
C     2.2034953827     -0.9772379914     1.8227318007
C     1.3053214875     1.290319882     2.0634529581
C     1.4239053721     2.508452992     -0.1553392143
C     0.8605463549     2.3929974082     1.1499829981
C     1.0171851205     1.5216334867     -2.2646820293
C     0.5370037663     2.5252674326     -1.2761954297
C     -0.0929253882     0.7037189018     -2.6624311555
C     1.3053214875     -1.290319882     -2.0634529581
C     0.0929253882     -0.7037189018     -2.6624311555
C     1.4239053721     -2.508452992     0.1553392143
C     0.8605463549     -2.3929974082     -1.1499829981
C     1.0171851205     -1.5216334867     2.2646820293
C     0.5370037663     -2.5252674326     1.2761954297
C     0.0929253882     0.7037189018     2.6624311555
C     -0.0929253882     -0.7037189018     2.6624311555
C     -0.5370037663     2.5252674326     1.2761954297
C     -1.0171851205     1.5216334867     2.2646820293
C     -0.8605463549     2.3929974082     -1.1499829981
C     -1.3053214875     1.290319882     -2.0634529581
C     -1.4239053721     2.508452992     0.1553392143
C     -2.3570686234     0.4575841137     -1.6731346577
C     -1.0171851205     -1.5216334867     -2.2646820293
C     -0.5370037663     -2.5252674326     -1.2761954297
C     -2.2034953827     -0.9772379914     -1.8227318007
C     -0.8605463549     -2.3929974082     1.1499829981
C     -1.3053214875     -1.290319882     2.0634529581
C     -1.4239053721     -2.508452992     -0.1553392143
C     -2.5226746558     -1.6210160486     -0.5141522573
C     -2.2034953827     0.9772379914     1.8227318007
C     -2.5226746558     1.6210160486     0.5141522573
C     -2.9639401223     0.6570436279     -0.3536071539
C     -2.3570686234     -0.4575841137     1.6731346577
C     -2.9639401223     -0.6570436279     0.3536071539


