40

 C     3.3485575184     0.464774092     0.5507822504
C     3.3640479819     -0.463731267     -0.4598284341
C     2.6979876221     -1.6783880197     -0.0132461792
C     2.5953208473     -0.0804112401     1.6893341856
C     2.2333089715     -1.4583793796     1.3527819677
C     1.5669864048     0.8235414515     1.9741840989
C     2.6951658967     1.6795128504     0.0865360437
C     1.7223456812     2.0232889803     1.0484109007
C     2.6402312199     0.0814247891     -1.6176286905
C     2.2689422814     1.4598352435     -1.291995183
C     1.7512766893     -2.0221257498     -1.0010609201
C     1.621109338     -0.8229517044     -1.931241742
C     0.5937650268     -2.7042612629     -0.6039265145
C     0.9651600744     -1.9328544823     1.7130782706
C     0.2718392468     -2.7652226675     0.7822663115
C     0.2153337598     0.3677251975     2.3266502263
C     -0.0601133577     -1.0242846422     2.2616618798
C     -0.8961900701     1.286622581     2.0716678446
C     0.5752993381     2.7040553588     0.6195221629
C     -0.7025293263     2.4561215189     1.2663272942
C     1.0106042048     1.9329123118     -1.6861978083
C     0.2914845654     2.7655406406     -0.7745583298
C     0.2791367448     -0.3674459609     -2.3200057813
C     0.0013941341     1.0243274659     -2.2628861733
C     -0.6660373939     -2.4556948433     -1.2842962862
C     -0.8382961979     -1.2868923987     -2.0953945581
C     -1.1745008972     -2.5923834556     0.934255928
C     -1.3935325975     -1.5257914935     1.8441393841
C     -1.767594841     -2.5873085144     -0.3613784067
C     -2.2011584394     0.7754185357     1.7651214592
C     -2.4460875439     -0.5908157998     1.5556529307
C     -1.7776605158     2.5857480375     0.3130792912
C     -1.149842841     2.5924346998     -0.9662623404
C     -1.3431998986     1.5249966231     -1.8809683376
C     -2.7316745382     1.5769521436     0.6102615732
C     -2.1509806659     -0.7761882817     -1.8233331695
C     -2.7130456104     -1.5784283252     -0.684164432
C     -3.150812153     -0.680121198     0.2602218826
C     -2.4032438098     0.5899137756     -1.6216938728
C     -3.1428008498     0.67853639     -0.3458677267


