40

 C     3.5232615622     0.1801125127     -0.8059159916
C     3.2707874408     -1.0748191867     -0.3425579943
C     2.8357822484     -1.0618551981     1.0685852389
C     3.1968239992     1.1099195786     0.3057874731
C     2.7654071038     0.3222210275     1.4745687757
C     2.2785251223     1.9979718285     -0.2146613637
C     2.5646469035     0.4142690129     -1.9180471995
C     1.8937547022     1.578954056     -1.6092110005
C     2.229772181     -1.7367204128     -1.1432652751
C     1.7329755019     -0.7856822719     -2.1080443028
C     1.70838682     -1.9151009554     1.1690973242
C     1.3462894413     -2.3381351038     -0.2213357069
C     0.6438298182     -1.5575452051     2.0374545907
C     1.6065903848     0.7312324331     2.1883885019
C     0.682757485     -0.264265906     2.6213615924
C     1.0568046927     2.3836503225     0.4491391607
C     0.7585221007     1.8496971268     1.7085231139
C     0.4841031048     1.7353974626     -1.7558667794
C     0.0047388293     2.4232832858     -0.5742935166
C     0.323136591     -0.673945202     -2.3294981456
C     -0.3231326508     0.6742009267     -2.3294244884
C     -0.0047382654     -2.4232198377     -0.5745595418
C     -0.484100583     -1.7352046589     -1.7560579455
C     -0.758524817     -1.8498845443     1.708319464
C     -1.0568055882     -2.3836993171     0.4488762051
C     -0.6827614649     0.263978733     2.6213892817
C     -0.6438329023     1.5573219037     2.0376240753
C     -1.6065936487     -0.7314722691     2.1883058737
C     -1.3462886341     2.3381592957     -0.2210811852
C     -1.7083882644     1.9149726561     1.1693043137
C     -1.732971964     0.7859136983     -2.107960281
C     -2.2297693947     1.7368448356     -1.14307807
C     -1.8937526319     -1.5787769911     -1.6093870422
C     -2.2785250871     -1.9979479493     -0.2148840161
C     -2.5646446565     -0.4140584989     -1.9180966033
C     -2.7654089704     -0.3223823531     1.4745288302
C     -2.835783294     1.0617379824     1.0686969477
C     -3.2707854904     1.0748559077     -0.3424452189
C     -3.1968246784     -1.1099525658     0.3056605699
C     -3.5232610469     -0.1800241591     -0.8059416645


