40

 C     2.8480698372     -1.5816864856     -0.7462615943
C     3.106047451     -0.1681145272     -0.5664437825
C     2.9849692068     0.1744576793     0.8079626168
C     2.3202640987     -2.0502091558     0.4905643387
C     2.4350831406     -1.009288869     1.4678931468
C     1.0417351887     -2.7135507773     0.2943931365
C     1.7400628617     -1.6753270368     -1.6580674576
C     0.6989885962     -2.5430025704     -1.1088565198
C     2.3172124221     0.5792510248     -1.5115196182
C     1.3881300342     -0.3959993779     -2.162924173
C     1.8566328934     1.8426747025     -1.1636083609
C     2.2430127755     1.3276659134     1.2143772847
C     1.8826373615     2.2905947578     0.2337128733
C     1.3012829425     -0.5911299933     2.2161134771
C     1.2080037137     0.8668305671     2.1535878234
C     0.0103870012     -2.5110845205     1.2510041721
C     0.1029464457     -1.3631306761     2.1506932112
C     -1.3496111401     -2.5893057867     0.8125426595
C     -0.6367989167     -2.3437006191     -1.498423271
C     -1.7014611858     -2.6413965037     -0.5403668436
C     -0.0130932576     -0.0738002968     -2.3767567098
C     -0.9964794268     -1.1050668753     -2.1596091195
C     0.5596952801     2.2663111071     -1.7010938042
C     -0.414915819     1.2922603689     -2.1516925443
C     0.6779631817     3.0672018792     0.4398999416
C     -0.0520204591     3.1423962899     -0.8033433193
C     -0.0609950337     1.4924341214     2.1836256358
C     -0.2713735348     2.6510602406     1.3969280329
C     -1.2135543666     -0.7179368437     2.2330852631
C     -2.1425407708     -1.5144415538     1.4818455808
C     -1.3032944057     0.6823896956     2.17190968
C     -2.7691616539     -1.683590182     -0.7310738512
C     -2.3082572584     -0.7330902041     -1.6345417329
C     -2.9830365228     -0.9426848594     0.5332733948
C     -1.722156616     1.6479153941     -1.5432613112
C     -1.4428479574     2.7248900774     -0.6117476298
C     -1.6189988423     2.4995431235     0.7451078252
C     -2.2362218627     1.2983007049     1.2245038328
C     -2.5578742497     0.6226225705     -1.1248174198
C     -2.9284301525     0.4787374967     0.2913871355


