40

 C     3.3470658625     -0.8761514227     -0.6420058962
C     2.5952843428     -1.8750708451     0.0046665201
C     2.3044678959     -1.4152419194     1.3346186917
C     3.4662399952     0.2713337331     0.2664474857
C     2.8355582299     -0.0672345751     1.5040049055
C     2.9985253577     1.4132942731     -0.4218844066
C     2.5446123388     -0.4559349258     -1.7756202245
C     2.3758095385     0.9244598154     -1.7157160766
C     1.4356347593     -2.2413945299     -0.7983914232
C     1.343908253     -1.294036946     -1.8940237676
C     0.2637254562     -2.6626576154     -0.1406806264
C     1.0079047569     -1.532340158     1.9256671193
C     0.0179789143     -2.2778219671     1.2623005373
C     1.7557610318     0.7151315364     2.0421605315
C     0.6606633414     -0.2038677562     2.4449953261
C     2.0497624015     2.2467644696     0.1569988847
C     1.3996900762     1.9420570463     1.4081858527
C     1.0873186137     1.5192655988     -1.8828913469
C     0.9542942315     2.4558696227     -0.8050596956
C     0.0757045132     -0.7354821739     -2.2745733491
C     -0.0756648232     0.7366945866     -2.2741812848
C     -0.954279199     -2.4554414646     -0.8063862477
C     -1.0872842456     -1.5182611572     -1.883722227
C     -1.3997145009     -1.942808464     1.4071270232
C     -2.0497658025     -2.2468480588     0.1557642966
C     -0.6607075974     0.2025649428     2.4450925
C     -1.755797756     -0.7162184108     2.0417474197
C     -0.0180032193     2.2771495999     1.2635141299
C     -0.2637232219     2.6627316648     -0.1392653051
C     -1.0079382827     1.5313142888     1.9264658723
C     -1.3438744509     1.2950462207     -1.8933588576
C     -1.4356207534     2.2418208117     -0.7972202096
C     -2.3757789343     -0.9235464621     -1.7162537166
C     -2.9985161962     -1.4130692684     -0.4226907997
C     -2.544578237     0.4568807542     -1.7754208237
C     -2.8355859359     0.0664331344     1.5039912019
C     -2.3044928298     1.4145312294     1.3353324894
C     -2.5952814413     1.8750676618     0.0056212836
C     -3.4662460493     -0.2714741816     0.2662402627
C     -3.3470534338     0.8764913116     -0.6415970492


