40

 C     -3.2004357181     -1.1212416687     0.5533513794
C     -3.194480745     -0.9831640267     -0.8020846326
C     -2.9933089268     0.4243748407     -1.1445152418
C     -3.0047565408     0.1874046615     1.1755933468
C     -2.9489907935     1.1811095323     0.1054574827
C     -1.9097203261     0.0590247318     2.0637582159
C     -2.0498683102     -1.9889129232     0.9214605411
C     -1.3358567608     -1.3288368214     1.9341391361
C     -2.0385431973     -1.7591709898     -1.32536192
C     -1.3666037354     -2.4686728916     -0.2591589856
C     -1.8888936418     0.4771923842     -2.0283447617
C     -1.314766811     -0.9086101242     -2.1761019493
C     -0.9549882907     1.5510412337     -1.9361676048
C     -1.9967386232     2.2181847803     0.2163836396
C     -1.1107951409     2.4836883132     -0.8940984856
C     -0.9763089799     1.128098163     2.2001998494
C     -1.1225318681     2.2523335858     1.3662723002
C     0.470950984     0.8699240208     2.3858028364
C     0.0520350346     -1.5250811219     1.9959189057
C     0.9565052413     -0.4537707344     2.4184684674
C     0.0594148572     -2.5752303243     -0.2627077902
C     0.7461211222     -2.3415251801     1.0014537533
C     0.0738741664     -1.0898106878     -2.2620778743
C     0.7587541669     -2.0913362041     -1.446492284
C     0.4942661148     1.334086712     -2.1555737917
C     0.9814764613     0.0437604148     -2.4501364242
C     0.2389369378     2.8321563253     -0.4086886315
C     0.2317590851     2.6903423698     0.9752901004
C     1.2097423984     1.874073052     1.6274806063
C     1.2243996385     2.1633153551     -1.2023109631
C     2.3644318362     1.4859867837     0.8870917792
C     2.3717799902     1.6323388146     -0.5440623343
C     2.2529261616     -0.7647506078     1.9012395741
C     2.1090555314     -1.9304250264     1.0195191216
C     2.9992103255     0.1846677076     1.1727143465
C     2.1213118411     -1.6866302615     -1.3673703243
C     2.273052493     -0.3668313     -1.9938219848
C     3.0106429411     0.4147913399     -1.0804787601
C     2.8783136194     -1.6990560158     -0.1587912544
C     3.5286294619     -0.4048402121     -0.0232463839


