94 

C 3.27095 2.33084 -2.36878
C 3.94923 1.14233 -2.39027
C 3.34809 .00348 -3.01386
C -.70045 -4.22847 -1.16797
C -.13534 -3.48710 -2.23374
C 1.26777 -3.46434 -2.31046
C 1.94673 -2.39809 -2.95908
C 1.25601 -1.24566 -3.37698
C 1.98270 .00710 -3.41279
C 3.32311 3.17677 1.21724
C 3.91407 2.72997 .00437
C 3.31963 3.18583 -1.20318
C 2.11281 3.94270 -1.20004
C .09984 4.53182 .01720
C 1.51000 4.34602 .01427
C 2.11644 3.93366 1.22371
C -.89724 -2.39453 -2.83048
C -.19729 -1.25444 -3.34005
C -.89550 .01186 -3.46748
C -.19343 1.27488 -3.32984
C 1.25973 1.26177 -3.36692
C 1.95392 2.40877 -2.94024
C -.88984 2.41325 -2.81139
C -.12466 3.49885 -2.20651
C 1.27834 3.47227 -2.28358
C -.68743 4.23413 -1.13533
C 4.62329 1.43886 -.00165
C 4.69510 .70243 -1.21016
C 3.27781 2.31309 2.37646
C 3.95606 1.12438 2.38667
C 4.69843 .69330 1.20100
C 1.96260 2.38677 2.95272
C -.88536 -.01410 3.47042
C -2.26923 -.01155 3.33462
C -.18371 1.25000 3.34052
C 1.26961 1.23658 3.37288
C 1.99261 -.01842 3.40665
C 3.35669 -.01913 3.00330
C -.11822 3.48244 2.23392
C 1.28511 3.45516 2.30627
C -3.99140 2.58847 .73211
C -2.87874 3.09038 1.44180
C -2.30622 2.30313 2.53365
C -.88169 2.39228 2.83300
C -2.99143 1.15430 2.91775
C -2.02441 3.94894 .72409
C -.68410 4.22570 1.17002
C 3.95244 -1.15990 2.37794
C 4.69621 -.72235 1.19557
C 4.61884 -1.45859 -.01272
C 4.69295 -.71327 -1.21558
C 3.27053 -2.34630 2.35863
C 1.26570 -1.27084 3.36323
C -.18758 -1.27935 3.33065
C 1.95507 -2.42004 2.93427
C 3.31322 -3.20139 1.19288
C 3.90564 -2.74747 -.01658
C 3.30988 -3.19237 -1.22762
C 3.26388 -2.32852 -2.38678
C 3.94575 -1.14194 -2.39905
C 2.10418 -3.95438 1.19352
C .08585 -4.53704 -.01759
C 1.49659 -4.35577 -.01904
C 2.10075 -3.94543 -1.23033
C -.12898 -3.50349 2.20698
C 1.27434 -3.48135 2.27970
C -3.99918 -2.58627 .71173
C -2.88805 -3.09690 1.41760
C -2.03648 -3.95269 .69348
C -.69712 -4.23694 1.13742
C -.88899 -2.41556 2.81427
C -2.99486 -1.17200 2.90854
C -2.31314 -2.31980 2.51544
C -4.71478 -1.40451 -1.16500
C -4.00131 -2.58086 -.71991
C -2.89228 -3.08623 -1.43298
C -2.03855 -3.94745 -.71794
C -4.22829 -.70840 -2.25892
C -4.22156 -.72570 2.26602
C -5.17888 -.68978 .00507
C -4.71126 -1.41342 1.16812
C -4.22594 .73385 -2.25308
C -4.71038 1.42320 -1.15383
C -5.17680 .70108 .01062
C -4.70706 1.41425 1.17933
C -4.21945 .71655 2.27178
C -2.88276 3.10093 -1.40878
C -2.02639 3.95413 -.68733
C -3.99344 2.59386 -.69961
C -2.32062 -2.30088 -2.52661
C -3.00354 -1.15000 -2.90858
C -2.27897 .01361 -3.32749
C -2.99979 1.17627 -2.89924
C -2.31341 2.32196 -2.50825
