94 

C 3.64361 -2.21468 -2.29308
C 4.21883 -.96629 -2.35935
C 3.49606 .10670 -2.98455
C -1.02171 4.04716 -1.43806
C -.34944 3.31281 -2.42300
C 1.06270 3.40309 -2.42383
C 1.86736 2.36898 -3.01927
C 1.30375 1.15591 -3.40783
C 2.15013 -.03356 -3.38668
C 4.98024 -1.15677 -.03523
C 4.39347 -2.48802 .02513
C 4.92757 -.42871 -1.20550
C 3.77695 -3.01868 -1.09133
C 2.56163 -3.77705 -.93772
C 1.97738 -3.96882 .32873
C .60573 -4.30773 .34414
C -.98090 2.12083 -2.99634
C -.15668 1.02998 -3.41514
C -.72660 -.30009 -3.49418
C .08565 -1.48373 -3.26302
C 1.53792 -1.34827 -3.29005
C 2.31759 -2.40816 -2.81448
C -.51623 -2.63817 -2.67930
C .32959 -3.59655 -1.97796
C 1.71255 -3.46967 -2.05629
C -.17583 -4.25499 -.82242
C 3.24645 -1.04803 3.08214
C 4.72889 -.49562 1.22306
C 4.10636 -1.46924 2.08969
C 2.53243 -3.28861 1.48718
C 3.77294 -2.64138 1.32678
C 2.01877 -1.74554 3.31328
C 1.61830 -2.81959 2.52875
C 3.00647 .34822 3.26994
C 3.55325 1.29955 2.40609
C 4.38517 .86851 1.29256
C 4.38160 1.65408 .05471
C 4.67670 .99020 -1.15402
C 2.84320 2.55238 2.30991
C 1.63943 .48381 3.77055
C -2.53523 .07117 3.32994
C -1.18049 .23630 3.59241
C -.59053 1.55321 3.39159
C .85622 1.66791 3.51084
C 1.52244 2.72365 2.91209
C -2.21547 -2.26596 2.64770
C -.35835 -.94791 3.60185
C 1.05352 -.77133 3.78757
C -3.07083 -1.18928 2.93108
C -1.60858 -3.94291 .96649
C -.25437 -3.96756 1.46510
C .17233 -3.10067 2.45115
C -3.73912 -2.86290 .78508
C -2.61345 -3.16882 1.57776
C -.82052 -2.16211 3.02884
C 2.89706 3.33589 1.16990
C 3.59737 2.87944 -.01666
C 3.06960 3.28705 -1.24980
C 3.16216 2.43462 -2.39357
C 3.95865 1.32098 -2.35813
C 1.64810 4.08665 1.07565
C -.32327 4.49314 -.26891
C 1.08245 4.39856 -.18633
C 1.77967 3.96827 -1.34676
C -.60289 3.62938 2.01760
C .80973 3.69134 2.14175
C -4.27946 2.25529 .38116
C -3.26999 2.91642 1.10632
C -2.43947 3.78481 .36483
C -1.15285 4.21200 .86277
C -1.33146 2.55536 2.69678
C -3.32519 1.12073 2.75175
C -2.71861 2.29419 2.30845
C -4.76663 .88004 -1.44055
C -4.19214 2.14859 -1.04760
C -3.09636 2.70454 -1.73460
C -2.35834 3.68263 -1.03479
C -4.16063 .16319 -2.45738
C -4.43985 .49981 2.05930
C -5.22802 .20334 -.24675
C -4.91075 1.05351 .88296
C -4.01855 -1.26962 -2.34578
C -4.48113 -1.92527 -1.21786
C -5.08430 -1.17550 -.13607
C -4.61121 -1.75168 1.10591
C -4.28350 -.93398 2.17164
C -2.47592 -3.40684 -1.26078
C -1.55764 -4.08507 -.43248
C -3.66486 -2.97211 -.64126
C -2.40103 1.91194 -2.74890
C -2.95605 .67908 -3.08482
C -2.10821 -.42932 -3.39827
C -2.73063 -1.62921 -2.91177
C -1.95149 -2.66501 -2.41175
