94 

C 2.67207 -3.18043 1.70025
C 3.53005 -2.37575 .94919
C 3.60995 -2.59796 -.48834
C 1.81641 -4.15438 1.08914
C 1.86028 -4.33475 -.27278
C 2.79072 -3.58806 -1.05924
C -1.73391 -3.97458 -1.10933
C .61137 -4.46438 -1.00848
C -.64072 -4.39312 -.34216
C -.68732 -4.18753 1.10744
C -1.83903 -3.50161 1.69885
C .54056 -4.16361 1.79269
C -1.66254 -2.85426 2.92476
C 4.04741 -1.50575 -1.35284
C 4.56395 -.34580 -.76373
C 2.16795 -3.39882 -2.35821
C 2.45645 -2.29005 -3.10160
C 3.46173 -1.36270 -2.64069
C .79520 -3.87205 -2.28172
C -.26263 -3.16486 -2.91098
C -1.54472 -3.36945 -2.38584
C 3.08653 -.08346 -3.10736
C 3.47551 1.08784 -2.43993
C 4.38729 .93152 -1.36455
C 4.47750 1.92095 -.31799
C 3.72134 3.06712 -.41081
C 1.77750 -.18896 -3.73603
C .83063 .86134 -3.66278
C 1.24058 2.12836 -3.07617
C 2.57931 2.24171 -2.46737
C 2.79891 3.23949 -1.51844
C -1.12226 2.78514 -3.06467
C .23643 3.07582 -2.73290
C .01323 -1.90142 -3.58494
C 1.38364 -1.52778 -3.72666
C -2.59678 -2.41627 -2.59991
C -2.34661 -1.17394 -3.17708
C -.97918 -.88182 -3.64691
C -.55036 .50406 -3.76128
C -1.50157 1.53062 -3.53901
C 3.91529 1.71919 2.06881
C 3.15073 2.94901 1.97266
C 4.59260 1.22601 .95237
C 3.09464 3.62926 .77390
C 1.84992 4.23859 .36827
C .70138 4.19083 1.18378
C -.52816 4.44590 .54097
C .46337 4.03115 -1.65953
C 1.71686 4.06431 -1.04844
C -.63982 4.45472 -.86174
C 3.90994 -1.08080 1.51867
C 3.19163 -.56307 2.66553
C 4.58241 -.17151 .68697
C 3.19824 .81788 2.90065
C .94478 -.65013 3.82388
C 2.10512 -1.33498 3.25774
C 1.97554 -2.66650 2.86813
C -.22912 -1.37444 3.99778
C -.36779 -2.71720 3.51922
C .71913 -3.35595 2.96002
C 1.99069 1.50149 3.36333
C -.44149 1.46286 3.53657
C .83785 .81031 3.71422
C -2.85986 1.08779 3.12921
C -1.64925 .64936 3.68007
C -1.52530 -.74127 3.88755
C .70807 3.34770 2.38196
C 1.93566 2.77997 2.75348
C -1.78209 3.98175 1.10639
C -1.78753 3.13269 2.23533
C -.51110 2.71557 2.83885
C -2.92921 2.33239 2.39912
C -4.46885 .86381 1.48689
C -3.79091 .17381 2.55866
C -3.48086 -1.20228 2.47028
C -2.40859 -1.65337 3.26143
C -4.82052 .17094 .35868
C -2.70797 3.80450 .05089
C -3.72177 2.81869 .12148
C -3.90658 2.19809 1.37604
C -3.28764 2.31006 -2.26452
C -2.24332 3.31904 -2.29629
C -2.00339 4.08812 -1.19182
C -4.60395 .77459 -.95339
C -4.05319 2.06477 -1.08987
C -3.53015 -2.57020 -1.49912
C -4.33477 -1.52406 -1.12384
C -4.26005 -.27286 -1.85457
C -3.26603 -.08163 -2.84216
C -2.85340 1.24249 -3.07472
C -3.80471 -1.93748 1.25396
C -2.96473 -3.06387 .85280
C -2.92001 -3.39705 -.50510
C -4.53600 -1.24889 .26301
