94 

C 3.82211 -3.02894 -.72471
C 3.82104 -3.03152 .73506
C 4.32881 -1.94764 -1.40860
C 4.32647 -1.95271 1.42407
C 3.60295 -1.44285 2.55674
C .64616 -4.45098 -.00006
C 2.59989 -3.63885 -1.17293
C 1.98472 -4.20306 .00140
C 1.83270 .30323 3.81905
C 1.38353 -.98861 3.53046
C 2.31373 -1.90975 2.89133
C 1.79747 -3.06491 2.18797
C 2.59814 -3.64309 1.17879
C -.13983 -4.15025 1.16699
C .36124 -3.31855 2.17345
C -.13823 -4.14637 -1.16710
C .36442 -3.31127 -2.16997
C 1.80083 -3.05738 -2.18135
C 2.31833 -1.89964 -2.87938
C 3.60706 -1.43382 -2.54057
C 3.92861 -.03288 -2.61694
C 1.38905 -.97646 -3.51652
C 1.83861 .31639 -3.79918
C 3.08075 .81508 -3.26362
C -.93572 -.09490 -3.69517
C -2.30795 -.24996 -3.46155
C -1.97780 -2.48861 -2.54116
C -.57004 -2.39615 -2.83956
C -.05481 -1.20819 -3.46771
C -2.83702 -1.44704 -2.95937
C -1.49775 -4.04175 -.71474
C -3.61080 -2.92600 -.70874
C -2.44424 -3.30577 -1.42634
C -3.61180 -2.92853 .70900
C -1.49872 -4.04419 .71342
C -.06006 -1.21988 3.47846
C -.57416 -2.40575 2.84514
C -1.98130 -2.49722 2.54467
C -2.44613 -3.31073 1.42653
C .88771 3.54291 -2.64615
C 2.87214 2.14649 -2.75203
C 1.61539 2.57977 -3.29843
C -.43190 1.27093 -3.73114
C .93820 1.44028 -3.85939
C -.54467 3.45142 -2.61297
C -1.21556 2.34669 -3.13272
C 1.35766 4.05034 -1.38111
C 2.44931 3.46184 -.71506
C 3.25871 2.48630 -1.44178
C 4.11714 1.55143 -.71317
C 4.55209 .38724 -1.38082
C 4.89688 -.81731 -.67913
C 4.11613 1.54898 .74190
C 4.55014 .38235 1.40579
C 4.89587 -.81974 .70004
C .18490 4.50121 -.67122
C 2.44817 3.45942 .74802
C 3.25666 2.48144 1.47255
C .18378 4.49904 .70392
C 1.35540 4.04576 1.41417
C -2.12957 3.63154 -.71384
C -.98823 4.07755 -1.37957
C -.99047 4.07323 1.40899
C -2.13088 3.62941 .73994
C -3.02716 2.73539 -1.43651
C -3.14684 .86033 -3.00620
C -2.55736 2.07380 -2.63361
C -4.08647 2.16173 -.72276
C 3.92458 -.04217 2.63918
C 3.07581 .80368 3.28764
C 2.86812 2.13716 2.78088
C -.54884 3.44316 2.64106
C .88351 3.53421 2.67672
C 1.61037 2.56869 3.32662
C -1.22042 2.33651 3.15583
C -.43755 1.25841 3.75099
C .93233 1.42707 3.88208
C -4.73930 .96897 1.17875
C -4.08761 2.15938 .74103
C -3.02961 2.73095 1.45829
C -4.25233 .30435 2.30647
C -3.15135 .85024 3.02096
C -2.56151 2.06520 2.65377
C -4.24895 .31229 -2.29513
C -5.13886 .21172 .00490
C -4.73771 .97321 -1.16567
C -4.09206 -1.13613 2.28348
C -4.46768 -1.84869 1.16796
C -5.00573 -1.16874 .00237
C -4.46609 -1.84451 -1.16489
C -4.08884 -1.12814 -2.27739
C -.94113 -.10741 3.70878
C -2.31298 -.26172 3.47290
C -2.84111 -1.45712 2.96563
