94 

C -4.32624 -.69150 -2.10323
C -4.47163 .72454 -1.80513
C -4.47214 -1.62715 -1.10844
C -4.82335 1.14047 -.53048
C -4.19922 2.30017 .02022
C -3.44538 1.42148 -2.51497
C -2.76851 2.51420 -1.97344
C -3.19086 3.00151 -.66858
C -1.08451 4.25782 -.47020
C -2.26806 3.80847 .12632
C -2.26048 3.66922 1.54124
C -1.12936 -1.78103 -3.67409
C -2.34843 -1.94861 -3.01457
C -3.23994 -.83266 -3.05559
C -2.74630 .45614 -3.34558
C -.67099 3.76775 -1.78335
C -1.40631 2.79911 -2.46535
C -.68771 1.85959 -3.29804
C -1.40157 .66091 -3.74395
C -.68623 -.48459 -4.09430
C -2.41311 -2.88519 -1.91196
C -3.52229 -2.73268 -.99995
C .01805 -2.54904 -3.32247
C .01988 -3.38524 -2.20981
C -1.23133 -3.55396 -1.46782
C -1.16995 -4.03027 -.08655
C .08083 -4.38132 .44540
C 2.52399 -2.95122 -2.00998
C 1.32018 -3.66267 -1.58137
C 1.31021 -4.22730 -.30845
C 3.59467 -2.82706 -1.10534
C 3.46883 -3.26584 .24897
C 2.35996 -3.97284 .63415
C 1.18687 -1.77186 -3.69634
C 3.29442 -.83154 -3.05699
C 2.42308 -1.94853 -3.06247
C .73986 3.81874 -1.85040
C 1.47825 2.86044 -2.56049
C .75278 1.87514 -3.32890
C 1.47468 .67359 -3.76956
C .74768 -.48645 -4.09980
C 2.80765 .46661 -3.36821
C -2.21226 -3.67591 .84515
C -3.38723 -3.03884 .34722
C .38981 -4.16583 1.82450
C -.56733 -3.60684 2.66173
C -1.89244 -3.43890 2.19936
C 1.75533 -3.73668 1.93331
C -.22005 -2.45809 3.45137
C 1.04835 -1.90206 3.42255
C 2.10375 -2.60554 2.68685
C 3.46536 -.55052 2.75098
C 3.31209 -1.87796 2.30390
C 4.01172 -2.24523 1.13136
C -2.43900 -2.25939 2.87380
C -3.52603 -1.51275 2.30978
C -4.11578 -2.03911 1.14266
C -4.81808 -1.20461 .23977
C -4.98149 .14874 .53386
C -2.48551 .54517 3.28002
C -3.59946 -.10407 2.57695
C -4.41679 .68332 1.72844
C -2.32734 1.94269 3.12787
C -3.11858 2.69578 2.17523
C -4.09294 2.07230 1.45572
C -1.41231 -1.63719 3.57105
C 2.38203 .14124 3.44361
C 1.16071 -.45769 3.68525
C -.03257 .39802 3.75053
C -1.33877 -.20734 3.67645
C .10261 1.79901 3.47265
C -1.06124 2.54431 3.19213
C 3.65247 1.71588 2.31855
C 2.50265 1.54467 3.15460
C 1.37830 2.36314 3.05270
C 3.65715 2.71316 1.37081
C 2.55695 3.62538 1.30118
C 1.41998 3.48005 2.11518
C 4.63982 -1.25993 .31787
C 4.67861 .09678 .70455
C 4.19624 .40268 2.00682
C 4.38913 .72188 -1.67857
C 4.30580 -.68174 -2.03627
C 4.44091 -1.64742 -1.07537
C 4.10484 2.41058 .01124
C 4.58732 1.12931 -.33547
C 1.21230 4.37632 -.59334
C 2.42817 4.00806 -.09359
C 3.30132 3.16384 -.88573
C 2.85185 2.60091 -2.10681
C 3.49426 1.42402 -2.52279
C -1.03360 3.65692 2.24416
C .16753 4.05449 1.63394
C .08257 4.51420 .29456
