94 

C 1.89550 -3.73031 1.73659
C .52543 -3.98518 1.75982
C -.02353 -4.60890 .60853
C -1.43792 -4.54418 .33663
C -2.26917 -3.96871 1.26042
C -1.69794 -3.26676 2.40147
C -.32342 -3.13971 2.58911
C 2.47311 -2.65424 2.52283
C 1.64249 -1.64726 3.06632
C -4.44244 -1.79874 -.84456
C -3.68130 -2.96945 -.53680
C -3.44553 -3.23770 .82680
C -3.70667 -2.23844 1.81496
C -4.06944 .11273 2.26384
C -4.38698 -1.05762 1.49390
C -4.81695 -.87692 .14788
C 3.46300 -.05708 2.67047
C 2.14771 -.30425 3.11956
C .20694 -1.89138 3.13907
C -.14460 .57377 3.45269
C -.66955 -.80799 3.40977
C -2.10058 -1.00977 3.25471
C -2.58560 -2.21412 2.74297
C -2.97058 .12001 3.12191
C -2.69678 -3.43624 -1.51823
C -1.61842 -4.24021 -1.07428
C -4.19323 -1.03775 -2.06062
C -3.19739 -1.42080 -2.91200
C -2.45981 -2.64729 -2.66801
C -4.37122 .37044 -1.76273
C -3.49943 1.36891 -2.33443
C -3.42392 2.58116 -1.67210
C -4.22096 1.46001 1.71009
C -4.52190 1.63813 .34349
C -4.81764 .47142 -.44422
C -3.93340 2.74438 -.33015
C -1.13675 -2.44638 -3.14502
C -.04020 -3.12213 -2.59670
C -.32798 -4.13060 -1.64806
C 1.27194 -2.47641 -2.60367
C 2.31233 -3.03967 -1.76072
C 3.51155 -2.34568 -1.63141
C -1.00319 -1.07460 -3.58870
C .14403 1.05404 -3.38848
C .19987 -.38642 -3.49088
C 1.40008 -1.13720 -3.09323
C 1.30143 3.10345 -2.70527
C 1.38285 1.77332 -3.12894
C 2.62432 1.05085 -2.88908
C 2.62188 -.40735 -2.86578
C 3.68827 -1.06513 -2.23128
C -2.34428 .92494 -3.13862
C -2.26191 -.43108 -3.44002
C -2.27649 3.44606 -1.82448
C -1.15195 3.04374 -2.61214
C -1.12254 1.70504 -3.18393
C .04499 3.70028 -2.36173
C 1.96049 -3.97060 -.68790
C .65096 -4.46150 -.62787
C 4.32986 -2.40496 -.42164
C 3.83717 -3.06651 .68381
C 2.65414 -3.88121 .54696
C 4.99567 -1.12324 -.27286
C 3.73428 -2.35540 1.95000
C 4.25097 -1.06907 2.06153
C 5.00592 -.48367 .96409
C 4.63556 1.01936 -1.41703
C 4.68506 -.35145 -1.46214
C 3.67041 1.72284 -2.22564
C 3.90973 2.86513 -.18794
C 4.74759 1.70724 -.13698
C 4.79742 .95005 1.02586
C 3.03686 3.19070 .86827
C 2.94297 2.26868 1.98992
C 3.83754 1.21276 2.05909
C 1.59736 4.36984 -.76135
C 2.28338 3.66590 -1.82200
C 3.42846 2.97213 -1.55654
C .84996 4.13773 1.52553
C 1.90903 4.06852 .57591
C -2.10473 4.15519 -.63207
C -.45880 4.47681 1.15855
C -.80572 4.59815 -.22655
C .22800 4.49849 -1.16777
C -3.26059 2.29538 2.34306
C -1.37632 3.79522 2.07566
C -2.69139 3.41254 1.67938
C -3.08857 3.66183 .33712
C 1.68620 2.13935 2.74172
C 1.22850 .81879 3.22317
C .76665 3.15319 2.59787
C -.61339 2.96075 2.91191
C -1.08705 1.69429 3.35042
C -2.45104 1.46172 3.18545
