94 

C .22655 4.55435 1.18808
C .57092 3.52089 2.08622
C 1.93455 3.03336 2.07585
C 2.22552 1.71497 2.60197
C 3.49520 1.18690 2.34504
C 3.73765 -.22233 2.35613
C 1.14299 .80256 2.97528
C 1.39585 -.60744 3.01512
C 2.72169 -1.12465 2.65231
C -1.12434 4.74392 .75199
C -2.13952 4.10120 1.42240
C -1.79943 3.09181 2.39161
C -.48154 2.68983 2.63378
C -.21665 1.28938 3.00109
C -1.31025 .35901 3.07416
C .28586 -1.52734 3.06921
C .52947 -2.90839 2.75395
C 4.77470 -.51351 1.37934
C 1.76376 -3.33896 2.19918
C 2.87442 -2.47536 2.13624
C 3.83347 -2.74009 1.12716
C 4.73708 -1.71467 .69565
C 1.49867 -4.30763 1.18321
C 2.22789 -4.24108 -.03579
C 3.42617 -3.47899 -.03546
C 1.49178 -4.29644 -1.25132
C .08975 -4.55546 1.18684
C -2.01004 -4.42525 -.02469
C -.62458 -4.73664 -.03011
C .08284 -4.54423 -1.24937
C -1.82533 -3.30540 2.15666
C -.48395 -3.73591 2.20961
C -2.64112 -3.87004 1.14282
C -2.87975 2.15530 2.42347
C -2.66262 .82485 2.79893
C -1.06079 -1.06252 3.06445
C -3.66615 -.08956 2.42094
C -3.41071 -1.49635 2.40223
C -2.14279 -1.99934 2.69659
C 5.08170 .71795 -.71890
C 4.76657 -.49995 -1.42832
C 5.08581 .71120 .68026
C 4.73298 -1.70773 -.75645
C 3.82693 -2.72921 -1.19304
C 2.86206 -2.45499 -2.19419
C 1.75106 -3.31809 -2.25942
C 4.01018 2.91848 .72509
C 4.00555 2.92534 -.73549
C 4.40245 1.77841 1.39008
C 4.39390 1.79189 -1.41400
C 1.04558 4.74841 .01327
C 2.32310 4.29413 .00679
C 2.83829 3.63345 -1.16986
C 3.48100 1.20957 -2.36941
C 2.20965 1.74003 -2.61298
C 1.92167 3.05317 -2.07183
C -.49715 2.71508 -2.61807
C .55825 3.54077 -2.06848
C .21943 4.56546 -1.15801
C -1.81325 3.11496 -2.36400
C -2.14759 4.11475 -1.38266
C -1.12861 4.75102 -.71181
C 2.70617 -1.09903 -2.69562
C 3.72350 -.19942 -2.39610
C -1.32802 .38890 -3.07837
C .51345 -2.88213 -2.80299
C .26801 -1.49778 -3.10255
C 1.37812 -.57830 -3.04514
C 1.12529 .83127 -2.98881
C -.23428 1.31845 -3.00150
C 2.84570 3.62229 1.17375
C -2.15858 -1.97313 -2.72097
C -1.07854 -1.03278 -3.08513
C -3.42459 -1.47268 -2.41394
C -3.67999 -.06572 -2.41641
C -2.67859 .85237 -2.79041
C -2.89352 2.17892 -2.39949
C -3.84083 -3.19968 -.74245
C -2.64801 -3.85901 -1.18317
C -1.83797 -3.28472 -2.19605
C -.49682 -3.71481 -2.26093
C -4.27635 -2.07314 -1.41143
C -4.92946 -1.00388 .69498
C -4.26813 -2.08701 1.39864
C -3.83646 -3.20681 .71567
C -4.93338 -.99710 -.69281
C -3.82739 2.49568 1.40801
C -4.54356 1.47549 .74157
C -4.60601 .22422 1.39873
C -3.83523 2.50939 -1.37531
C -3.33585 3.67003 -.67434
C -3.33192 3.66335 .71628
C -4.61375 .23803 -1.38549
C -4.54763 1.48258 -.71561
