94 

C 3.56441 1.60820 -2.47057
C 4.42690 1.34081 -1.37787
C 4.84662 .00039 -1.21002
C 2.89310 .54688 -3.12671
C 3.16433 -.79459 -2.82790
C 4.27063 -1.04912 -1.97560
C 4.33317 2.19883 -.19544
C 4.54017 1.60898 1.07802
C 2.66890 2.75172 -2.47296
C 2.67217 3.63246 -1.42032
C 3.47818 3.32410 -.24030
C 1.41056 2.34333 -3.04191
C -2.25393 2.47434 -2.24455
C -3.36715 1.64889 -2.39346
C -.99121 2.02882 -2.81289
C .18464 2.84019 -2.59363
C .19187 3.86191 -1.55549
C 1.43157 4.22386 -.99173
C 2.25389 -2.99227 -2.24583
C 2.06758 -1.75608 -2.90438
C -.38318 -2.15392 -2.83783
C .72331 -1.31794 -3.18562
C .47050 .10829 -3.43677
C 1.54834 .97875 -3.44632
C -1.97415 -.22924 -3.17570
C -.84737 .67592 -3.24881
C -3.23290 .30340 -2.89080
C 1.54971 4.41920 .42938
C 2.73110 3.72273 .89720
C 2.64254 2.85803 2.01722
C 3.61751 1.86687 2.12432
C .42323 4.42922 1.20358
C -1.00764 4.07921 -.76974
C -2.26082 3.46251 -1.17817
C -.86392 4.47100 .57630
C .33205 3.54015 2.36412
C 1.34714 2.63132 2.65923
C 2.02016 .28436 3.18359
C 3.33896 .62858 2.82656
C 4.27482 -.33582 2.35505
C 3.92851 -1.67842 2.35525
C -1.02774 3.20646 2.54687
C -1.42504 1.91181 2.92698
C -.40068 .93227 3.20414
C .97891 1.31046 3.12947
C -2.15125 -.87240 2.99184
C -.77144 -.49324 3.21238
C .25052 -1.48348 3.10521
C 1.65482 -1.10420 3.16453
C 2.62721 -2.05680 2.79715
C -2.43784 -2.21224 2.66549
C -1.39662 -3.11537 2.35671
C -.07099 -2.78850 2.57935
C -3.17034 .12250 2.67436
C -2.79833 1.51282 2.61320
C -4.34303 -.29018 2.00295
C -3.00262 3.50924 1.16547
C -1.78127 3.95433 1.55643
C -3.59903 2.38303 1.84388
C -3.31513 3.42105 -.24505
C 5.20784 -.53752 .10152
C 4.88295 -1.95268 .11376
C 4.98625 .23521 1.22375
C 4.31229 -2.53268 1.24220
C 3.27213 -3.53059 1.08916
C 4.35070 -2.27367 -1.19714
C 3.37461 -3.22838 -1.34368
C 2.87222 -3.94073 -.18543
C .92467 -3.55876 1.84267
C 2.25900 -3.25644 2.06185
C 1.50009 -4.24205 -.42810
C .54461 -4.16617 .58972
C -3.15065 -3.58385 .89391
C -1.80169 -3.92382 1.20408
C -.85726 -4.15792 .20037
C -3.53465 -3.43393 -.44147
C -2.51420 -3.45676 -1.44547
C -1.20473 -3.81997 -1.15973
C -5.05109 -1.59132 .16392
C -4.50588 -1.64073 1.51532
C -3.58046 -2.59009 1.86107
C -4.50425 -2.41763 -.81223
C -4.60489 1.88124 .95627
C -5.33851 -.20234 -.13054
C -5.00597 .56876 1.06078
C -4.05808 -1.82904 -2.06169
C -4.28925 -.49087 -2.32324
C -5.02057 .32762 -1.37925
C -4.48200 1.67456 -1.47850
C -4.39479 2.48045 -.35807
C 1.15095 -3.70147 -1.74395
C -.15944 -3.32304 -2.04303
C -2.78948 -2.40612 -2.41030
C -1.74712 -1.64330 -2.94998
