94 

C -4.30740 1.96647 .76804
C -3.40607 2.80635 1.47532
C -2.82673 2.30120 2.65763
C -2.66357 3.76791 .72855
C -2.62628 3.67827 -.74101
C -3.33187 2.65357 -1.42284
C -4.33121 1.95470 -.68212
C -1.41635 4.22598 1.17401
C -.74779 3.58712 2.27269
C -1.49497 2.67161 3.01998
C -.86492 1.51957 3.60207
C 1.33956 2.31485 2.87086
C .51032 1.29877 3.50554
C -.66436 4.60770 -.01087
C .68784 4.60468 .01615
C 1.40017 4.10689 1.18988
C .70381 3.43829 2.23661
C 2.69886 1.97568 2.51856
C 3.19859 .70383 2.91121
C -3.18966 .72981 -2.92493
C -2.68486 1.99681 -2.52632
C -.68351 3.44998 -2.23795
C -1.37914 4.11807 -1.18675
C -1.79818 .44716 3.59467
C 2.31967 -.31471 3.39284
C .96200 -.07024 3.60585
C .02900 -1.17863 3.48834
C -1.38131 -.90061 3.45010
C .51728 -2.44577 2.99301
C -.41390 -3.36439 2.49524
C 4.03167 -1.37282 2.24107
C 2.80420 -1.59549 2.94273
C 1.91090 -2.60988 2.59351
C 4.32083 -2.14550 1.12807
C 3.43426 -3.20877 .75972
C 2.25532 -3.47956 1.47844
C 4.81496 .65844 1.08410
C 4.27665 .06249 2.22310
C 2.64796 3.66421 .74101
C 3.34827 2.63570 1.41735
C 4.34496 1.93551 .67154
C -1.80589 -3.07496 2.44979
C -2.31313 -1.82987 2.85596
C -3.54800 -1.34789 2.23631
C -2.35415 -3.77938 1.32295
C -3.44081 -3.26604 .66471
C -4.11289 -2.10687 1.19021
C -1.26621 -4.36679 .57948
C -1.19668 -4.19186 -.82597
C .08507 -4.21279 -1.40398
C 1.18874 -4.20032 .78998
C -.09269 -4.21799 1.36778
C 1.25762 -4.37009 -.61642
C -3.86964 .06998 2.29360
C -3.01746 .92426 3.02669
C -4.78295 -1.47639 .07449
C -5.02423 -.12238 .09471
C -4.61980 .65799 1.23593
C -4.32052 -2.12242 -1.15558
C -4.80516 .68368 -1.09878
C -4.26767 .09001 -2.24194
C -4.02821 -1.34669 -2.26534
C -2.26042 -3.46389 -1.51134
C -3.43812 -3.19086 -.79144
C -2.80139 -1.57176 -2.96823
C -1.91206 -2.59112 -2.62316
C .41037 -3.35598 -2.52791
C -.51835 -2.43038 -3.02169
C 1.38685 -.89177 -3.47067
C -.02519 -1.16466 -3.51061
C -.95523 -.05177 -3.62392
C -2.31113 -.29209 -3.41256
C 1.81015 .45598 -3.60837
C 4.11364 -2.11799 -1.21675
C 3.43620 -3.27766 -.69671
C 2.34803 -3.78387 -1.35708
C 3.55118 -1.35155 -2.25947
C 2.31426 -1.82622 -2.88161
C 1.80180 -3.07237 -2.48146
C 4.62924 .64330 -1.24925
C 5.03153 -.14207 -.11323
C 4.78544 -1.49627 -.09945
C 3.02668 .92532 -3.03954
C 3.87786 .06367 -2.30867
C 2.68472 3.76049 -.72686
C 2.84118 2.30292 -2.66276
C 3.42251 2.80030 -1.47802
C 4.32080 1.95394 -.77323
C -.49624 1.31748 -3.51677
C -1.32245 2.33356 -2.87670
C .87756 1.53390 -3.61122
C 1.51215 2.67962 -3.02435
C .76760 3.59461 -2.27195
C 1.43798 4.22502 -1.17074
