94 

C 2.67018 -.19213 3.55741
C 3.21527 -1.28726 2.78131
C 4.26497 -.97739 1.90949
C 4.56631 -1.79345 .77031
C 3.81510 -2.92732 .52765
C 1.38237 -.24090 4.05731
C -.82644 -1.15722 3.99876
C .52667 -1.38321 3.82783
C .97843 -2.45579 2.94332
C 2.35752 -2.43146 2.48947
C 2.71081 -3.24321 1.39882
C 4.54655 -1.19534 -1.60640
C 3.76014 -2.38519 -1.87376
C 4.94755 -.91242 -.32055
C 3.42364 -3.25375 -.83375
C 2.11960 -3.81574 -.79142
C 2.77311 -2.04042 -2.83834
C 1.48768 -2.58701 -2.81621
C 1.16676 -3.54483 -1.78240
C -1.96598 -3.91607 .24473
C -.61807 -4.04398 -.08654
C -.22472 -3.82247 -1.46397
C -1.19115 -3.39335 -2.37729
C -1.81233 -2.00582 3.40832
C -1.42089 -3.01963 2.49510
C .00013 -3.22460 2.22947
C .37031 -3.85661 .97746
C 1.70495 -3.87230 .60964
C -2.37228 -3.40133 1.53630
C 3.08269 2.07943 -2.64188
C 4.02289 1.23745 -2.02615
C 4.03711 -.12424 -2.45775
C 2.98226 -.65084 -3.22727
C -.87371 -2.33713 -3.32583
C .40438 -1.83164 -3.45551
C .56813 -.41134 -3.76805
C 1.89455 .16188 -3.64608
C 2.02990 1.54138 -3.45245
C 4.46513 1.54720 -.66011
C 4.89541 .45993 .17625
C 2.55602 3.25126 -1.96996
C 2.94828 3.52364 -.67203
C 3.92230 2.67238 -.01787
C 1.18785 3.41337 -2.33856
C 1.96414 3.90665 .28877
C .61601 4.03762 -.04028
C .22190 3.83172 -1.41994
C -2.77644 2.06582 -2.81351
C -1.49096 2.61200 -2.78564
C -1.16957 3.55766 -1.74089
C -2.12176 3.81705 -.74629
C -2.03353 -1.50849 -3.46898
C -1.89821 -.12694 -3.64702
C -.57174 .44754 -3.76284
C -.40793 1.86410 -3.43400
C .87010 2.36823 -3.29915
C -2.98574 .68088 -3.21815
C 3.58787 2.64066 1.38152
C 3.86432 1.49735 2.15770
C 4.56062 .41614 1.53995
C 2.97400 1.19281 3.21649
C 2.37145 3.37773 1.57429
C -1.70655 3.85711 .65514
C -.37155 3.83794 1.02218
C -.00027 3.19301 2.26690
C 1.42112 2.98600 2.52961
C 1.81342 1.96279 3.43121
C -2.71224 3.22023 1.43735
C -2.35790 2.39736 2.51895
C -.97787 2.41717 2.97255
C -.52522 1.33524 3.84440
C .82798 1.10761 4.01214
C -1.38064 .19025 4.05980
C -3.81688 2.91481 .56324
C -4.56861 1.77912 .79344
C -4.26621 .95033 1.92333
C -3.21507 1.25054 2.79795
C -2.66836 .14669 3.56008
C -4.54937 1.20716 -1.58999
C -3.76290 2.39979 -1.84425
C -3.42582 3.25643 -.79457
C -4.95022 .91022 -.30729
C -3.08588 -2.05555 -2.66399
C -4.02564 -1.22061 -2.03775
C -4.04021 .14577 -2.45372
C -3.92419 -2.67791 -.04640
C -2.95072 -3.52229 -.71115
C -2.55908 -3.23533 -2.00631
C -4.89748 -.46758 .17379
C -4.46704 -1.54554 -.67501
C -2.97265 -1.23411 3.20308
C -4.56167 -.43891 1.53768
C -3.86391 -1.52716 2.14210
C -3.58853 -2.66233 1.35288
