94 

C 4.25051 .18159 -1.58910
C 3.47785 .12227 -2.77621
C 4.64307 .46829 1.21918
C 4.53692 1.58902 .44449
C 4.38202 1.45238 -.99117
C 3.92406 .40134 2.47693
C 3.04555 1.43976 2.86283
C 1.97478 1.08222 3.70117
C 3.31247 3.39539 -.28948
C 3.61798 2.57146 -1.44662
C 2.67627 2.43155 -2.48560
C 2.68525 1.20925 -3.19218
C 2.15333 4.12830 -.27106
C 2.89529 2.61613 2.01591
C 3.73719 2.71371 .89143
C 1.33418 4.13988 .90561
C 1.62159 3.33271 2.00250
C 1.28145 4.14708 -1.42948
C 1.43812 3.20694 -2.45922
C 1.47217 .67704 -3.79622
C 1.58924 -.75028 -3.81691
C -.02248 4.50149 -.94188
C -1.14371 4.12346 -1.66605
C -.99329 3.20948 -2.76824
C .23523 2.66523 -3.10741
C .24793 1.30454 -3.68901
C -.96907 .47190 -3.70931
C .45402 -1.57179 -3.74675
C .65540 -2.87011 -3.22418
C .73095 1.83341 3.71009
C .48605 2.86439 2.81313
C -1.14002 3.87090 1.16538
C -.03030 4.39557 .48077
C 2.80971 -1.10227 -3.17612
C 1.85865 -3.21431 -2.56283
C 2.91730 -2.27771 -2.41961
C 1.51204 -4.12248 -1.48865
C 2.19579 -4.05942 -.30923
C .07693 -4.28695 -1.47222
C -.64771 -4.30844 -.24994
C -2.00952 -4.01155 -.33601
C -1.74049 -3.06031 -2.58229
C -.43670 -3.58121 -2.58306
C -2.58185 -3.48499 -1.52542
C -2.22246 2.44397 -2.86297
C -2.22313 1.09023 -3.33505
C -.86571 -.95586 -3.69483
C -3.30192 .29326 -2.94968
C -3.18577 -1.12554 -2.90076
C -1.98733 -1.76499 -3.21752
C 3.35438 -3.19586 -.18375
C 3.69562 -2.25437 -1.17479
C 4.36054 -1.02311 -.76000
C 3.46064 -2.88033 1.20609
C 4.11014 -1.73825 1.59542
C 4.63802 -.84527 .60950
C 1.66756 -.27232 3.95756
C 3.58764 -.96334 2.70736
C 2.37383 -1.31951 3.33488
C 2.23033 -3.29039 1.88021
C .18160 -2.55006 2.99925
C 1.62092 -2.49157 2.86052
C -1.87800 -1.29916 3.65533
C -.48312 -1.49086 3.77679
C .25077 -.37686 4.20234
C .06073 -4.04401 1.00720
C 1.46188 -4.03292 .95567
C -2.73462 -3.47835 .80173
C -2.05354 -3.12090 1.98290
C -.59825 -3.34346 2.08659
C -2.67142 -2.13827 2.77750
C -3.67189 -.06067 2.90460
C -2.45991 -.01750 3.70370
C -1.63282 1.14325 3.73968
C -.30435 .93715 4.11837
C -4.04924 1.03887 2.19362
C -3.82334 -2.71009 .31050
C -4.29167 -1.57408 1.00801
C -3.77802 -1.38578 2.31312
C -4.61714 -.44045 -1.16181
C -4.07052 -1.59767 -1.84826
C -3.74351 -2.72322 -1.14066
C -4.62340 .88663 .86467
C -4.72328 -.39991 .24257
C -3.06919 2.84904 -1.82870
C -4.26637 2.02891 .13549
C -4.03088 1.95080 -1.26488
C -4.21460 .71481 -1.90027
C -1.94443 2.27806 2.89259
C -.89980 3.10352 2.38709
C -3.21277 2.23745 2.19961
C -3.39204 2.86603 .98128
C -2.36032 3.68363 .41720
C -2.34482 3.81127 -.99077
