94 

C 1.53721 .95684 3.76882
C .24687 1.46632 3.64592
C -.86635 .54300 3.73568
C -2.20258 1.03117 3.36501
C -2.33409 2.36003 2.83208
C -3.20976 .13310 3.05121
C 1.78453 -.43166 3.87556
C .74148 -1.36379 3.79522
C -.61871 -.87262 3.78456
C -1.36398 -3.05914 2.87729
C -1.69125 -1.80324 3.40334
C -2.96345 -1.28616 3.04639
C .01383 -3.46183 2.72449
C 1.06299 -2.67462 3.22509
C 2.33466 -2.89041 2.64404
C -4.19512 .41783 2.02713
C -4.15064 1.65199 1.32500
C -3.24637 2.65214 1.81495
C -4.43229 1.64744 -.04978
C -4.49849 -.79172 1.36759
C -4.26297 -1.96773 -.76628
C -4.70944 -.81706 -.04285
C -4.71210 .42874 -.72833
C -2.10136 -3.60705 1.77733
C -3.27179 -2.98703 1.30958
C -3.75344 -1.86337 2.03669
C -3.53077 -3.04397 -.09353
C -3.67426 2.51121 -.96107
C -2.68322 3.44600 -.47306
C -2.62629 3.62574 .91024
C -1.42109 4.06654 1.54406
C -.36402 4.50502 .77913
C -3.49484 1.84085 -2.15084
C -1.95213 .94519 -3.76981
C -2.28052 2.00318 -2.93606
C -1.23288 2.91464 -2.47859
C -1.49306 3.70163 -1.28121
C -.41342 4.33656 -.65879
C -3.74244 -1.84295 -2.06817
C -3.66825 -.57579 -2.71387
C -4.16819 .54403 -2.04472
C -2.58555 -.37001 -3.63425
C 3.00204 3.60983 .04612
C .97226 4.26704 1.22882
C 1.80280 4.25928 .03964
C 3.42856 2.88480 -1.12738
C 2.80561 1.65405 -3.08207
C 2.57249 2.75757 -2.25192
C -.60715 .73093 -4.18430
C .42067 1.61434 -3.81621
C .11775 2.73127 -2.93138
C 1.22593 3.34773 -2.20694
C .92686 4.16854 -1.12227
C 1.73088 1.08627 -3.87334
C 3.41522 2.87216 1.22016
C 2.53381 2.72713 2.32296
C 1.23518 3.39336 2.30067
C .10481 2.79146 3.00522
C -1.17485 3.21841 2.67184
C 2.68444 1.57387 3.10540
C 4.20244 1.78074 .77384
C 4.25626 .57070 1.48855
C 3.59848 .55110 2.74749
C 3.36028 -1.86608 2.67548
C 3.09941 -.68319 3.30795
C 3.69326 .61130 -2.70658
C 4.29388 .59778 -1.42320
C 4.21757 1.79379 -.68528
C 4.43446 -.67368 -.70963
C 4.42821 -.68541 .74998
C 4.06504 -1.87559 1.40487
C 3.19707 -.60363 -3.31102
C 3.33747 -1.79273 -2.65548
C 4.04401 -1.84434 -1.39040
C -.38801 -.67453 -4.22910
C .86907 -1.22007 -3.97290
C 1.95512 -.30525 -3.98877
C -2.65254 -2.78992 -2.20585
C -.21137 -3.03098 -2.55982
C -1.53372 -2.51584 -2.97252
C -1.60032 -1.34010 -3.80885
C 2.22003 -2.73364 -2.60097
C .96832 -2.44674 -3.16261
C -1.15635 -4.18928 .86382
C 2.33962 -3.46599 -1.39573
C 1.20925 -3.93409 -.71452
C -.08986 -3.77562 -1.33679
C -1.28737 -4.00599 -.51471
C -2.54860 -3.52660 -.97125
C 3.52571 -2.97730 -.69126
C 3.57023 -3.00662 .68066
C 2.46195 -3.59236 1.41416
C 1.31987 -4.08402 .74144
C .13981 -4.15323 1.49774
