94 

C -3.94541 -2.33164 1.27324
C -2.81486 -2.64895 2.06512
C -1.92006 -3.60947 1.53074
C -.58940 -3.69790 1.96938
C -.88773 -1.67910 3.33060
C -.03595 -2.73546 2.84934
C -4.68062 -1.11781 1.47001
C -4.22528 -.20063 2.40763
C -3.03259 -.47624 3.15739
C -2.29545 -1.67718 2.99240
C -.27596 -.43331 3.76714
C 1.10223 -.38723 3.90487
C 1.94697 -1.47988 3.51185
C 1.41360 -2.59004 2.85223
C 2.23184 -3.24008 1.82935
C 3.22625 -.93024 3.17301
C 3.98190 -1.52231 2.18944
C 3.49885 -2.70726 1.54465
C 3.13847 .51918 3.25335
C 3.79388 1.34641 2.31712
C 3.21664 2.62246 2.08701
C -2.35732 .76779 3.36370
C -.97819 .83088 3.59170
C -.27403 2.02402 3.22187
C 1.17463 2.02061 3.33019
C 1.83523 .84147 3.73038
C 1.93876 2.95304 2.59370
C 1.57014 -3.99879 .77012
C .19770 -4.23191 .87226
C 4.03356 -2.68632 .18994
C 3.34630 -3.29003 -.82793
C 2.11776 -3.99120 -.54227
C 4.67833 -1.39788 -.03047
C 4.55957 -.71732 -1.26889
C 4.65947 .69350 -1.23243
C 4.56887 .71994 1.23774
C 4.66587 -.69105 1.20059
C 4.68107 1.40030 -.00142
C 1.26648 -3.82835 -1.66250
C -.13711 -3.85468 -1.53631
C -.63716 -4.27938 -.28056
C -.95593 -2.98975 -2.36773
C -2.34439 -2.81747 -2.01887
C -3.06942 -1.77913 -2.64233
C 1.91621 -2.94544 -2.60679
C 1.80939 -.83383 -3.74312
C 1.14918 -2.01149 -3.33799
C -.29882 -2.01194 -3.21946
C -1.00317 -.81749 -3.58450
C -2.38039 -.75178 -3.34669
C 3.77651 -1.34245 -2.34308
C 3.19826 -2.61740 -2.10888
C 3.11644 -.51395 -3.27502
C -2.85036 -3.30306 -.74117
C -1.95822 -3.94904 .12965
C -4.24983 -1.19867 -2.06490
C -4.69336 -1.62780 -.81960
C -3.96085 -2.65002 -.13543
C -4.24022 .22036 -2.37806
C -5.15879 -.66254 .16796
C -5.15859 .68418 -.13247
C -4.68799 1.13849 -1.43761
C 1.07739 .39644 -3.91257
C -.29972 .44530 -3.76503
C -2.31198 1.69306 -2.97615
C -3.05219 .49365 -3.13576
C -.04952 2.74668 -2.84917
C -.90633 1.69218 -3.32423
C -.59554 3.71020 -1.96504
C -1.92326 3.62459 -1.51724
C -2.82353 2.66577 -2.04540
C -3.94935 2.35069 -1.24595
C 3.49382 2.71185 -1.56877
C 3.97048 1.52611 -2.21678
C 3.20732 .93543 -3.19528
C 2.22583 3.24710 -1.84486
C 1.39960 2.59855 -2.86218
C 1.92665 1.48745 -3.52541
C 2.12871 3.99816 .52776
C 3.35768 3.29469 .80498
C 4.03717 2.68992 -.21749
C .19989 4.24251 -.87346
C 1.57244 4.00693 -.78099
C -3.04912 1.79675 2.66397
C -2.32610 2.83385 2.03547
C -.93489 3.00348 2.37466
C -.62736 4.29196 .28513
C -.11985 3.86649 1.53753
C 1.28462 3.83720 1.65380
C -3.95516 2.66925 .16310
C -4.68499 1.64864 .85203
C -4.23422 1.21861 2.09463
C -1.95160 3.96427 -.11579
C -2.83940 3.32026 .76121
