94 

C 4.71371 .01368 1.44538
C 4.39959 -1.35575 1.46840
C 4.45691 -2.07279 .23272
C 3.47802 -1.80513 2.46493
C 2.74426 -.87660 3.21708
C 2.95101 .51961 3.09665
C 4.05967 .93712 2.33677
C 2.62902 -2.97288 2.24338
C 2.66475 -3.67312 1.00443
C 3.56653 -3.21675 -.00563
C 1.47531 -4.29774 .57934
C 1.39439 -2.74122 2.88309
C -1.05785 -2.55706 2.62839
C .18261 -3.29651 2.41019
C .27265 -4.20969 1.34724
C -3.40447 -2.22423 2.02458
C -2.25122 -2.99377 1.91934
C 1.92876 2.71331 2.75318
C 1.79277 1.39477 3.23693
C -.67404 1.64997 3.08533
C .46462 .84403 3.39076
C .29182 -.61744 3.47632
C 1.42115 -1.41296 3.43880
C -2.16628 -.39168 3.10867
C -1.00142 -1.23906 3.17157
C -3.37690 -.94882 2.67111
C 1.10093 -4.28752 -.80781
C 1.84805 -3.58235 -1.74651
C 3.17270 -3.19771 -1.35239
C 3.85914 -2.09341 -1.98996
C 3.22192 -1.39010 -2.97331
C -.33948 -4.32343 -.88083
C -2.39767 -3.38354 -1.64004
C -1.04218 -3.59618 -1.87647
C -.31125 -2.66594 -2.72368
C 1.13434 -2.75717 -2.73588
C 1.84766 -1.71852 -3.33297
C -2.11695 -3.84480 .74133
C -.84023 -4.35560 .43316
C -2.97856 -3.63042 -.35252
C 3.82070 2.13192 -1.91466
C 4.16388 .77328 -2.11794
C 3.37399 .05316 -3.04852
C 2.14523 .57928 -3.51993
C .26326 2.09239 -3.02861
C 1.69588 1.84972 -3.13299
C 2.60360 2.66121 -2.42018
C -1.52009 3.38644 -2.00689
C -.16627 3.22085 -2.23812
C -.17073 -.32243 -3.52911
C 1.19918 -.50579 -3.68557
C -4.18361 .27902 -2.20387
C -2.94928 .07921 -2.85737
C -2.06478 1.22795 -3.03020
C -.66840 1.04218 -3.31666
C -2.47773 2.46730 -2.50919
C -.96758 -1.46520 -3.15886
C -3.10004 -2.28709 -2.25362
C -2.38930 -1.26214 -2.88539
C 4.79793 .03637 -1.02118
C 4.63420 -1.38809 -.97824
C 4.11731 2.81483 -.66501
C 4.65051 2.09395 .38437
C 4.99109 .69402 .20511
C 3.05872 3.77528 -.41819
C 4.09367 2.24244 1.71745
C 3.06904 3.12888 1.95237
C 2.57698 3.97078 .87858
C .75658 3.87280 -1.30622
C 2.12297 3.67136 -1.48962
C 1.18170 4.16239 1.08432
C .27975 4.20679 .01526
C -3.35377 3.45632 -.56879
C -2.02265 3.93652 -.74856
C -1.13450 4.05272 .32452
C -3.78221 3.07164 .70263
C -2.81280 3.00723 1.75473
C -1.51919 3.48579 1.59737
C -5.11596 1.23863 -.25858
C -4.50790 1.52941 -1.55120
C -3.66681 2.60268 -1.70126
C -4.69234 1.95073 .85974
C -4.26397 -2.02826 -1.45337
C -5.29718 -.19668 -.18238
C -4.80518 -.76206 -1.42974
C -4.27595 1.22142 2.04264
C -4.43625 -.14652 2.11129
C -5.03530 -.87218 1.00928
C -4.42067 -2.18471 .98090
C -4.15055 -2.79895 -.23030
C .80492 3.42084 2.28938
C -.48746 2.92879 2.45991
C -3.06476 1.81686 2.54708
C -2.00928 1.05339 3.05485
