94 

C -4.23728 .13336 -2.25546
C -4.02329 -1.30412 -2.27723
C -4.71178 .74787 -1.09713
C -4.31458 -2.06498 -1.16707
C -3.44104 -3.15503 -.80020
C -2.80044 -1.55576 -3.00511
C -1.90707 -2.58229 -2.64730
C -2.26241 -3.44260 -1.51798
C .09519 -4.17163 -1.40634
C -1.21010 -4.15816 -.82718
C -1.28551 -4.33793 .56685
C -3.12811 2.62517 -1.40545
C -2.63639 1.98425 -2.60362
C -4.14409 1.98170 -.67539
C -3.18032 .74453 -2.98081
C -.49373 1.27842 -3.72471
C -1.31594 2.31587 -3.11680
C -.68622 3.44887 -2.59809
C .88076 1.48977 -3.82203
C 1.50569 2.65703 -3.28151
C .73833 3.60487 -2.64488
C -2.31837 -.31497 -3.48749
C .41394 -3.35704 -2.50222
C -.53182 -2.43221 -3.03947
C -.03779 -1.19249 -3.57015
C -.95747 -.09690 -3.73630
C 1.39886 -.90951 -3.52350
C 1.81436 .40230 -3.70568
C -1.15582 4.06589 -1.37113
C -2.28161 3.58938 -.70133
C -2.31127 3.66332 .75890
C .00098 4.55508 -.66684
C .00394 4.54951 .71168
C -1.17960 4.15980 1.42455
C 1.18435 4.17035 -1.38275
C 1.16054 4.05390 1.41217
C 2.28611 3.58235 .73861
C 2.31576 3.66801 -.72104
C 4.12727 1.98962 -.75754
C 3.19901 2.76977 -1.46659
C 2.78705 2.27791 -2.73090
C -3.19455 2.75903 1.49729
C -4.12315 1.98489 .78228
C -.73370 3.58379 2.68223
C -1.50122 2.63065 3.31116
C -2.78258 2.25659 2.75747
C .69084 3.42692 2.63415
C -.87669 1.45812 3.84213
C .49786 1.24668 3.74295
C 1.32014 2.28906 3.14362
C 4.14814 1.97446 .70004
C 3.13244 2.61225 1.43511
C 2.64064 1.96136 2.62789
C 3.18427 .71851 2.99518
C -3.01196 .89462 3.09194
C -3.84364 .07543 2.30964
C -4.53433 .70307 1.24066
C -4.96534 -.05576 .08853
C -4.76648 -1.41589 .05971
C -2.32801 -1.85581 2.86487
C -3.54725 -1.34874 2.23645
C -4.11428 -2.07904 1.17437
C -1.82342 -3.08233 2.43755
C -2.36800 -3.76965 1.30423
C -3.45568 -3.23926 .63977
C -1.81050 .37205 3.71695
C 2.32203 -.34510 3.49300
C .96113 -.12878 3.74343
C .04126 -1.22290 3.56837
C -1.39525 -.93888 3.52391
C .53487 -2.45861 3.02757
C -.41151 -3.37826 2.48225
C 4.02712 -1.32454 2.27525
C 2.80423 -1.58203 3.00089
C 1.91040 -2.60554 2.63437
C 4.31751 -2.07649 1.15877
C 3.44339 -3.16320 .78257
C 2.26471 -3.45643 1.49773
C 4.96879 -.05705 -.08031
C 4.71577 .73735 1.11190
C 4.24167 .11361 2.26528
C 4.76959 -1.41730 -.06256
C 3.01604 .91867 -3.07621
C 3.84757 .09303 -2.30036
C 4.53837 .71161 -1.22621
C 2.36972 -3.75931 -1.32731
C 1.82600 -3.06206 -2.45449
C 2.33126 -1.83246 -2.87130
C 3.45762 -3.23524 -.65816
C 4.11712 -2.07074 -1.18273
C 3.55074 -1.33141 -2.23853
C -.09358 -4.18356 1.37928
C 1.21181 -4.16555 .80064
C 1.28704 -4.33331 -.59480
