94 

C 4.33818 1.95717 -1.41941
C 4.89235 .89739 -.73646
C 4.63819 -.44184 -1.18708
C 3.49570 1.69779 -2.55328
C 3.08278 .39102 -2.89501
C 3.39985 -2.94499 -1.19387
C .96684 -3.30918 -2.49660
C 1.73617 -2.18477 -2.84057
C 3.03533 -2.02190 -2.19369
C 3.69530 -.72188 -2.19873
C 4.34071 1.94798 1.41429
C 3.77916 3.08552 .69041
C 4.89368 .89267 .72345
C 3.77792 3.08994 -.68699
C 1.39087 2.64946 -3.27854
C 2.57572 2.80581 -2.62555
C 2.60611 3.54103 -1.38734
C 1.78047 .21668 -3.53942
C 1.04900 1.36765 -3.84148
C 1.06065 -1.05590 -3.44280
C 1.39682 2.62823 3.28364
C 3.50028 1.68126 2.54801
C 2.58053 2.78881 2.62947
C .19782 3.25037 -2.75163
C .14444 3.71886 -1.43279
C 1.40479 3.86575 -.71738
C 1.40611 3.86115 .73067
C 2.60876 3.53215 1.39611
C .20279 3.23262 2.76297
C .14705 3.70970 1.44734
C 1.05586 1.34271 3.83877
C 1.78679 .19376 3.52766
C 3.08794 .37230 2.88187
C 3.69923 -.73605 2.17730
C 4.64037 -.44946 1.16579
C 1.06686 -1.07820 3.42401
C 1.74136 -2.20307 2.81314
C 3.03936 -2.03602 2.16503
C .97140 -3.32514 2.46328
C -.36916 1.31920 3.95483
C -2.45975 .22478 3.59863
C -1.07801 .11786 3.88328
C -.36257 -1.10855 3.58250
C -1.13490 -2.20794 3.03149
C -.45135 -3.28907 2.50704
C -2.15005 2.50282 2.74481
C -.89171 2.49962 3.33488
C -3.01217 1.42974 3.10741
C -2.29463 3.13142 1.43649
C -3.46177 2.81808 .71170
C -2.29707 3.14041 -1.42152
C -1.13016 3.61080 -.71009
C -1.12889 3.60629 .72617
C -3.46298 2.82255 -.69686
C 1.34321 -4.21999 1.39472
C 2.51327 -3.99047 .71080
C 3.40209 -2.95264 1.15866
C 4.10626 -2.49735 -.01681
C 4.70939 -1.27776 -.01341
C .13707 -4.60547 .67966
C 2.51189 -3.98570 -.75108
C 1.34056 -4.21080 -1.43436
C .13577 -4.60092 -.71966
C -2.12042 -3.61044 .70646
C -.97184 -4.05151 1.37419
C -.97435 -4.04268 -1.40883
C -2.12183 -3.60593 -.73634
C -3.01171 -2.71185 1.42634
C -3.20397 -.88202 3.02883
C -2.53322 -2.03237 2.61448
C -4.09033 -2.16811 .72122
C -4.76721 -.98039 -1.17200
C -4.09168 -2.16346 -.73864
C -3.01445 -2.70286 -1.44904
C -4.31649 -.32676 -2.31207
C -3.20946 -.86256 -3.03917
C -2.53802 -2.01564 -2.63361
C -4.31234 -.34175 2.30716
C -5.16030 -.21688 -.00130
C -4.76522 -.98817 1.16355
C -4.18188 1.11613 -2.31064
C -4.43625 1.83014 -1.15963
C -4.98920 1.16467 .00325
C -4.43432 1.82262 1.16949
C -4.17786 1.10110 2.31526
C -.89762 2.52111 -3.32646
C -3.01763 1.44973 -3.10251
C -2.15486 2.52030 -2.73405
C -.45594 -3.27294 -2.53775
C -1.14046 -2.18838 -3.05405
C -.36908 -1.08529 -3.59902
C -2.46617 .24797 -3.60267
C -1.08496 .14307 -3.89035
C -.37620 1.34493 -3.95509
