94 

C -2.90326 -2.94125 -.93292
C -3.78945 -2.01576 -1.54433
C -.76833 -4.10352 .53667
C -.57294 -3.85120 -.83538
C -1.65677 -3.27210 -1.60072
C -1.35764 -2.65164 -2.88025
C -.04505 -2.72941 -3.37393
C 1.89842 -3.68921 -.33377
C .80283 -3.77253 -1.29435
C 1.02072 -3.31041 -2.60157
C 3.11243 -3.12191 -.75330
C 3.26417 -2.56035 -2.06698
C 2.23495 -2.65711 -2.97795
C 1.62252 -3.70995 1.09733
C 2.47107 -2.96296 2.02674
C .32279 -4.03450 1.49044
C 1.91290 -2.53875 3.24637
C -2.19811 -1.57944 -3.38264
C -3.39461 -1.27718 -2.69628
C .52498 -1.68111 -4.18141
C -.23151 -.55753 -4.47307
C -1.61829 -.52871 -4.12878
C 1.90650 -1.52885 -3.82686
C .31895 .74173 -4.24233
C 1.61932 .91827 -3.76619
C 2.46656 -.26123 -3.58504
C 3.92860 1.06369 -2.10407
C 3.60789 -.18627 -2.67580
C 4.01420 -1.34594 -1.96405
C -1.95623 .83546 -3.81430
C -3.02860 1.15065 -2.94998
C -3.87243 .07343 -2.57735
C -4.69547 .14080 -1.40592
C -4.67388 1.28083 -.62953
C -.77065 1.60374 -3.82372
C -.57306 2.66561 -2.91936
C -1.65540 3.04036 -2.03403
C -2.90284 2.29840 -2.08007
C -3.78782 2.36656 -.97189
C -.04069 4.30254 -.67917
C -1.35404 3.83795 -.85718
C 3.11236 2.22527 -2.33343
C 1.89757 2.14710 -3.03289
C .80351 3.02204 -2.62334
C 1.02365 3.92283 -1.56988
C -4.69407 -1.27885 .60172
C -4.67227 -.07267 1.42638
C -4.67457 -1.17644 -.77367
C -4.69331 1.16979 .82748
C -3.86833 2.21669 1.35409
C -3.02346 1.99951 2.47240
C -1.94975 2.90410 2.63048
C -2.19326 3.73811 .32355
C -3.39085 2.99434 .24339
C -1.61188 3.85813 1.60600
C -1.95308 -3.71146 1.19936
C -3.02673 -3.12079 .49619
C -3.86949 -2.25956 1.24422
C -3.38991 -1.68734 2.47234
C -2.19232 -2.13032 3.07510
C -1.61303 -3.30165 2.53718
C .53193 -2.77026 3.55772
C -.22569 -3.58489 2.73185
C -2.89857 .67205 3.03105
C -3.78525 -.32036 2.53683
C -.76381 2.52651 3.29908
C -.56711 1.21201 3.76614
C -1.65070 .25941 3.64916
C -1.35095 -1.15885 3.75101
C -.03770 -1.54697 4.06285
C 1.90347 1.56654 3.37083
C .80911 .77579 3.92516
C 1.02794 -.58722 4.17813
C 3.11723 .92013 3.08720
C 1.91208 4.09208 .58454
C .53100 4.47689 .63167
C -.22454 4.16872 1.75151
C 2.47228 3.24810 1.56068
C 1.62582 2.81623 2.67369
C .32608 3.31843 2.76047
C 4.01669 2.38465 -.19113
C 3.26646 3.08196 -1.19043
C 2.23873 3.92061 -.81739
C 3.93243 1.30117 1.96566
C 3.61203 2.42175 1.16942
C 4.48845 -1.25512 -.61133
C 4.49060 .11035 1.39718
C 4.70426 .00737 -.00146
C 4.48882 1.16703 -.78955
C 2.24184 -1.23936 3.79845
C 3.26985 -.49833 3.25741
C 4.01805 -1.01603 2.15296
C 3.61113 -2.21244 1.50529
C 3.92972 -2.34219 .13645
