94 

C -2.80537 -3.35345 -1.53959
C -3.58512 -2.20836 -1.85587
C -3.14415 -1.43398 -2.94614
C -1.84821 -1.63117 -3.50457
C .45322 -2.42383 -3.07514
C -.99231 -2.64177 -3.05074
C -1.55218 -3.57979 -2.14595
C 2.63668 -2.91447 -2.06125
C 1.29278 -3.27580 -2.25435
C .04156 -.08203 -3.89194
C -1.32433 -.34511 -3.89584
C 2.75063 .54193 -3.34500
C 2.34524 -.82934 -3.31077
C .96707 -1.16900 -3.55687
C 3.15884 -1.71048 -2.57946
C .44352 1.30684 -3.77593
C -.05340 3.47165 -2.70737
C -.52152 2.30821 -3.34855
C 1.81279 1.58027 -3.59473
C -4.35128 -1.55485 -.78350
C -4.65868 -.18083 -.91390
C -2.72230 -3.86040 -.17299
C -3.35502 -3.19428 .83806
C -4.22713 -2.06707 .54087
C -1.39035 -4.37010 .04111
C -.69562 -4.13823 1.25833
C .69864 -4.26347 1.20848
C .69328 -4.14577 -1.24256
C -.70083 -4.27035 -1.19196
C 1.38799 -4.37074 -.02392
C -4.17864 -1.20040 1.65450
C -4.39710 .19076 1.50947
C -4.67584 .68797 .21444
C -3.74273 1.06077 2.42770
C -3.16023 -1.69361 2.57974
C -.96801 -1.14757 3.55410
C -2.34621 -.80869 3.30529
C -2.75090 .56292 3.33029
C 1.32321 -.32223 3.88817
C -.04201 -.05884 3.88242
C -1.29485 -3.26213 2.26467
C -2.63831 -2.90141 2.06906
C 1.55044 -3.56750 2.15832
C .99081 -2.62378 3.05746
C -.45454 -2.40534 3.08040
C 1.84689 -1.61048 3.50491
C -2.26316 2.76685 2.86561
C -3.38473 2.39532 2.05521
C -3.45995 2.81471 .69874
C -4.16235 1.97720 -.19566
C -1.34514 3.67982 2.39604
C -.44361 1.33020 3.75721
C -1.81198 1.60310 3.57396
C .05466 3.48791 2.67520
C .52196 2.32857 3.32351
C -1.48487 4.22350 1.06740
C -2.42739 3.69663 .16595
C -2.66744 2.57727 -2.08367
C -3.80202 1.89628 -1.57522
C -4.17910 .59721 -2.04348
C -3.43862 -.01301 -3.03349
C -.15803 4.59871 .64543
C .16032 4.59477 -.68487
C -.79780 4.07616 -1.64136
C -2.04635 3.58111 -1.24282
C -1.89666 1.93430 -3.12454
C -2.29611 .65548 -3.57219
C 2.29594 .67663 3.55777
C 1.89725 1.95250 3.10203
C 2.04765 3.58813 1.20977
C .79972 4.08594 1.60494
C 3.43772 .00459 3.02342
C 4.17866 .60857 2.02935
C 3.80230 1.90452 1.55337
C 2.66852 2.58886 2.05724
C 2.42896 3.69502 -.19957
C 1.48690 4.21667 -1.10424
C 2.80357 -3.34503 1.55045
C 3.58369 -2.19798 1.85959
C 3.14299 -1.41676 2.94495
C 4.22558 -2.07159 -.53832
C 3.35298 -3.20029 -.82818
C 2.72018 -3.86015 .18693
C 4.65771 -.17677 .90475
C 4.35006 -1.55112 .78324
C 3.74365 1.04520 -2.44484
C 4.67551 .68537 -.22941
C 4.39696 .18032 -1.52116
C 4.17761 -1.21202 -1.65707
C 1.34703 3.66441 -2.42966
C 4.16304 1.97702 .17230
C 3.46161 2.80927 -.72676
C 3.38648 2.38140 -2.08094
C 2.26450 2.74844 -2.89345
