94 

C -4.56897 .71009 -.93693
C -3.98920 1.39743 -2.03336
C -4.49555 -.70141 1.56190
C -4.51524 .66676 1.56114
C -4.58287 1.39447 .29783
C -3.61528 -1.39380 2.45930
C -3.42198 2.66102 1.84888
C -3.87546 2.61562 .47239
C -3.07642 3.15404 -.56296
C -3.24185 2.58177 -1.83747
C -2.29441 3.35601 2.16443
C -.13142 3.47008 2.90514
C -1.38999 2.83161 3.15396
C 1.02023 2.86079 3.33125
C -1.25068 -2.75798 3.03649
C -1.34933 -1.41973 3.44589
C -2.61040 -.71755 3.18051
C -2.65272 .72957 3.20113
C -3.66549 1.38386 2.46653
C -.12562 -.69155 3.69645
C -.21342 .77549 3.84585
C -1.45829 1.47940 3.55125
C .96439 1.51700 3.84039
C -1.51059 3.99802 1.11823
C -1.79719 3.80433 -.23114
C -.68224 3.78528 -1.17463
C -.91884 3.22104 -2.49716
C -2.15863 2.61294 -2.80236
C .17390 2.78830 -3.26389
C -.16823 4.08451 1.59539
C .92686 4.01362 .72951
C .66820 3.90561 -.70051
C 3.06230 3.15234 -.97543
C 1.77709 3.50307 -1.56276
C 1.51255 2.96194 -2.81101
C 2.19605 3.56122 1.28934
C 3.25462 3.15895 .38784
C 2.22268 3.00403 2.57020
C .12050 1.56907 -3.99694
C -1.03623 .79236 -4.02323
C -2.22364 1.43624 -3.58255
C -3.37422 .68002 -3.13852
C -3.30929 -.68512 -3.11720
C 1.43510 .96632 -3.97504
C 2.78360 -.91429 -3.31911
C 1.57662 -.46477 -3.82155
C .36377 -1.29148 -3.66846
C -.91972 -.66996 -3.88928
C -2.07328 -1.36080 -3.48856
C 3.89713 2.08892 -1.54267
C 3.48319 1.38572 -2.67414
C 2.30824 1.85642 -3.35579
C 3.76744 -.00959 -2.75091
C -4.55818 -1.43706 .30080
C -4.54719 -.75804 -.93728
C -3.92128 -1.42555 -2.02581
C -3.14633 -2.58871 -1.82028
C -3.05028 -3.19663 -.55356
C -3.84856 -2.65490 .48224
C -2.23704 -3.36163 2.16445
C -3.37158 -2.67755 1.85513
C .54052 -4.31205 -.69313
C -.71512 -3.93455 -1.16274
C -1.82610 -3.92007 -.21768
C -1.54558 -4.12827 1.14699
C 2.87885 -2.16744 -2.61580
C 1.72543 -2.97207 -2.40815
C .43719 -2.53066 -2.93833
C -.76454 -3.10904 -2.37764
C -1.99112 -2.53998 -2.71567
C 1.75750 -3.84194 -1.31485
C 2.12444 -3.94979 .98103
C .80741 -4.46973 .70504
C -.20518 -4.27405 1.61286
C 3.45674 -2.20578 1.96193
C 2.33635 -3.07510 2.05833
C 3.88603 -2.04509 -1.64506
C 4.19475 -2.06320 .78190
C 3.77691 -2.74066 -.40802
C 2.75403 -3.69391 -.28807
C 4.56321 1.42221 -.46677
C 4.70646 -.69143 .72900
C 4.78276 .01586 -.50173
C 4.41837 -.68076 -1.70102
C 3.03774 1.82069 2.85391
C 4.29986 -.03287 1.91468
C 4.02577 1.35984 1.92877
C 4.19038 2.08419 .73333
C .00129 -3.35406 2.72628
C 1.19812 -2.65766 2.88641
C 1.14392 -1.31974 3.45124
C 3.47251 -.94331 2.66793
C 2.36083 -.49729 3.37862
C 2.24811 .91129 3.57092
