94 

C -3.96664 -1.53746 1.97491
C -4.01732 -2.25451 .75980
C -3.14710 -3.36578 .65021
C -2.64559 -3.81651 -.64135
C -2.93271 -3.09652 -1.76883
C -.95404 1.21303 3.97709
C -1.27290 -.15909 3.89471
C -2.58429 -.46703 3.50880
C -2.89558 -1.73448 2.88911
C -1.88892 -2.68342 2.65809
C -2.12491 -3.59323 1.60246
C -1.16289 -.63432 -3.68630
C -2.16651 -1.50031 -3.25434
C -1.86868 -2.76705 -2.70535
C -1.30782 -4.32821 -.45159
C 1.03131 -4.23889 -.93787
C -.28249 -4.09666 -1.40232
C -.54332 -3.19160 -2.52591
C 2.13742 -3.57755 -1.60330
C 1.89877 -2.66302 -2.65413
C .51685 -2.38301 -3.07728
C .20357 -1.11131 -3.67435
C 1.27461 -.13464 -3.87676
C .95100 1.23664 -3.95132
C 1.32249 -4.32608 .44663
C -1.01685 -4.24720 .93329
C -.19885 -1.13106 3.68658
C -.50804 -2.40071 3.08249
C .29651 -4.10288 1.39847
C .55451 -3.20276 2.52677
C -.41972 1.69283 -3.89001
C -1.47456 .80784 -3.70384
C -2.69187 1.30925 -3.05719
C -.40574 2.99686 -3.28581
C -1.50403 3.42145 -2.56866
C -2.69158 2.61788 -2.54988
C .90842 3.25199 -2.79254
C -1.31582 4.00974 -1.27558
C -.04693 4.13193 -.70884
C 1.11984 3.77153 -1.51069
C 4.28787 1.89824 -.63657
C 3.34311 2.53488 -1.46378
C 2.39751 3.46875 -.85618
C 2.48054 3.69838 .51700
C 1.76900 2.20997 -3.32843
C 3.45441 .55069 -2.95045
C 2.97656 1.85657 -2.70164
C 2.90251 -1.70948 -2.87958
C 2.58715 -.43990 -3.49232
C -3.64867 .36108 -2.48569
C -3.40871 -1.01692 -2.65081
C -3.38206 2.94073 -1.31335
C -4.25319 2.04083 -.75308
C -4.44851 .74587 -1.38473
C -2.49200 3.69225 -.47756
C -4.29322 1.88011 .66637
C -3.35077 2.51584 1.49707
C -2.40832 3.45611 .89455
C 1.30331 4.00778 1.31657
C .03389 4.12848 .75064
C -1.13172 3.76017 1.55071
C -.91853 3.23499 2.82988
C -4.74360 .52235 .91206
C -4.78203 -.18736 -.36258
C -4.40932 -1.54419 -.46082
C -3.83936 -1.96231 -1.69621
C -4.34090 -.13718 2.04331
C -3.45519 .52344 2.97272
C -1.77553 2.18689 3.35993
C -2.98191 1.83238 2.73124
C 2.68381 2.61401 2.58353
C 1.49358 3.41359 2.60647
C .39671 2.98164 3.32129
C 2.68838 1.30261 3.08345
C 1.47269 .79376 3.72697
C .41506 1.67432 3.91804
C 4.44682 .75379 1.40830
C 4.24729 2.05153 .78365
C 3.37329 2.94562 1.34867
C 3.41279 -1.01936 2.66422
C 3.64824 .36051 2.50683
C 4.34239 -.11169 -2.02449
C 3.84643 -1.95826 1.70454
C 4.41504 -1.53155 .47159
C 4.78343 -.17296 .38105
C 4.74285 .54331 -.88970
C 2.94332 -3.09575 1.77057
C 2.65850 -3.81078 .63933
C 3.15868 -3.35152 -.64959
C 4.02547 -2.23674 -.75283
C 3.97295 -1.51358 -1.96402
C 1.16568 -.64939 3.70106
C 2.17203 -1.50992 3.26459
C 1.87831 -2.77466 2.70866
