94 

C .09602 4.28997 -1.45199
C 1.44050 3.94141 -1.41781
C 2.13535 4.22608 -.20941
C 3.40530 3.60445 .07554
C 3.98278 2.79419 -.87927
C 3.17722 2.36396 -2.02445
C 1.88471 2.82832 -2.24766
C -.83280 3.60810 -2.33112
C -.48737 2.36766 -2.90698
C 4.79697 -.67751 -1.17205
C 4.81605 1.67576 -.48159
C 4.63634 .64705 -1.48903
C 2.59045 .11404 -2.83159
C 3.54157 1.03494 -2.35911
C 3.98643 -1.66411 -1.83833
C -.56099 -2.75074 -3.08453
C .48969 -1.82434 -3.20623
C 1.81615 -2.26708 -2.79500
C 2.87186 -1.30071 -2.62334
C -2.85163 1.75838 -2.77713
C -1.53205 1.40501 -3.12749
C .91039 1.94064 -2.86453
C -2.25526 -.98995 -3.08266
C -1.20179 -.00960 -3.28989
C .16864 -.41755 -3.31024
C 1.24166 .57521 -3.10471
C -1.90818 -2.33646 -2.99237
C 4.95051 -1.07575 .22246
C 4.85878 -.10309 1.20878
C 4.88593 1.30442 .86004
C 4.03647 1.99112 1.81979
C 3.36934 3.15494 1.45903
C 4.27454 -2.32212 .39672
C 3.90357 -.28073 2.26252
C 3.14056 -1.43377 2.38582
C 3.38999 -2.53697 1.47135
C 2.88909 -3.68537 -1.08984
C 3.89446 -2.77643 -.93431
C 2.19438 -4.21123 .07473
C 2.37899 -3.58338 1.32535
C 1.27621 -3.57464 2.20240
C 1.94359 -3.51584 -2.15128
C -2.14408 3.51672 1.75086
C -.76898 3.57199 1.94705
C 1.35043 2.42455 2.68856
C 2.06938 3.40486 1.96890
C 3.35936 1.02371 2.61106
C 1.04588 -2.44266 3.08976
C 1.84897 -1.31691 3.07250
C 1.23203 -.00368 3.29591
C 2.01210 1.18586 2.99543
C -.35159 -2.35014 3.32407
C -.96625 -1.10628 3.53721
C -.17223 .11115 3.46055
C -.85462 1.39073 3.16710
C -.10724 2.50333 2.71109
C -2.30138 1.38993 2.97426
C -2.91442 2.42925 2.26289
C -.00537 4.34297 .97589
C 1.38742 4.23581 .99207
C -2.78594 3.98843 .53225
C -2.00014 4.45797 -.50176
C -.59582 4.67523 -.26890
C -3.90672 3.10666 .25883
C -2.13685 3.86335 -1.82165
C -3.15035 2.95229 -2.06318
C -4.12104 2.63944 -1.02666
C -4.12216 -.07805 2.19243
C -4.51979 .88084 1.21405
C -4.01510 2.17916 1.37178
C -2.35957 -1.07232 3.31503
C -3.03136 .17625 3.03981
C -4.13454 -1.50719 1.91727
C -4.45004 -1.95822 .66371
C -4.75303 -.98821 -.38928
C -4.82003 .40547 -.13520
C -4.52948 1.26226 -1.22229
C -.99844 -3.37795 2.57267
C -2.29317 -3.20176 2.08027
C -3.02411 -2.10732 2.62378
C .89551 -4.61681 -.35143
C -1.55461 -4.26603 -.08680
C -.23000 -4.51642 .49603
C .01893 -4.09216 1.82486
C -3.69411 -3.05534 .07398
C -2.60726 -3.66790 .72596
C -3.65711 -2.80221 -1.33276
C -2.60012 -3.25380 -2.08116
C -1.62898 -4.11176 -1.48670
C -.42887 -3.95048 -2.27961
C .78556 -4.27543 -1.76135
C -3.80626 .75906 -2.34019
C -4.19899 -1.48090 -1.59292
C -3.53350 -.59744 -2.48430
