94 

C 2.47520 -3.21319 -1.28297
C 1.44896 -4.03584 -2.03579
C 4.63020 -1.68836 .19695
C 3.48744 -2.33031 .95615
C 2.41654 -3.09824 .22019
C 1.36755 -3.85818 .99469
C 1.33391 -3.78625 2.51153
C 5.12361 -.33891 .71643
C 4.73507 .14365 2.09765
C 3.87305 -.74303 2.99327
C 3.31436 -2.03434 2.42559
C 2.18314 -2.70075 3.17727
C .22032 -4.50724 .25344
C .24506 -4.56884 -1.25841
C -.05670 -3.67717 3.13458
C -1.26797 -4.16052 2.37510
C -1.10974 -4.69694 .95671
C -.14019 -2.40957 3.97626
C -2.58992 -3.40059 2.47337
C -2.54134 -1.97636 3.00199
C -1.28308 -1.46436 3.66632
C 2.88595 .18469 3.69832
C 1.48527 -.32596 3.97341
C 1.27472 -1.82644 4.03611
C .31505 .56567 3.73432
C -1.07924 .00211 3.80855
C -2.27317 .92829 3.79826
C -3.31222 -3.61281 1.14560
C -2.39366 -4.37064 .18871
C -2.24863 -3.80289 -1.21011
C -1.02249 -4.17670 -2.01151
C -4.19470 -2.51211 .61911
C -4.58759 -1.35471 1.50865
C -3.55186 .42266 3.12943
C -3.61536 -1.00391 2.62248
C -4.17031 -2.13945 -.70809
C -2.99346 -2.53051 -1.53902
C -1.26312 -2.00070 -3.42196
C -.62706 -3.36708 -3.24627
C .89768 -3.40679 -3.31260
C 1.66280 -2.30857 -4.01577
C -3.12882 -.27798 -2.83143
C -2.46818 -1.60100 -2.60368
C -2.58262 .68067 -3.87336
C -1.19979 .37953 -4.44434
C -.57577 -.96850 -4.28441
C .90779 -1.09977 -4.56518
C -4.77085 -.74557 -.84737
C -4.40104 1.69694 -1.66494
C -4.18477 .20998 -1.86379
C -4.10955 1.54439 2.25991
C -4.66435 1.20255 .89495
C -5.01959 -.23283 .56683
C -4.54979 2.20376 -.23243
C 4.48449 -1.54962 -1.31973
C 3.40801 -2.31479 -2.05991
C 2.98875 -1.81953 -3.43146
C 3.08575 -.31712 -3.69523
C 3.73554 .55212 -2.64176
C 4.73786 -.09291 -1.70431
C 4.60655 2.04078 -.20184
C 5.15880 .65482 -.43954
C -.32119 1.61700 -4.29296
C 1.13385 1.41240 -3.92669
C 1.78467 .13232 -4.34907
C 1.72871 2.19114 -2.77742
C 3.11949 1.86537 -2.29036
C 3.76830 2.72972 -1.23291
C -1.14877 2.71229 -3.61652
C -.57336 3.36054 -2.37153
C .88309 3.18475 -2.02209
C .58116 4.70518 .07658
C 1.49334 4.02242 -.92341
C 2.93193 3.78058 -.50909
C -2.97966 3.70863 -1.40318
C -3.48669 2.67093 -2.40188
C -2.56621 2.15773 -3.48340
C -.92970 4.70917 -.15425
C -1.49934 4.02974 -1.38199
C -3.19667 2.75724 2.41568
C -1.60008 4.41697 1.18600
C -2.89216 3.62980 1.21786
C -3.66752 3.43450 -.06673
C 3.09439 1.57207 3.16820
C 1.90001 2.45102 2.88077
C .52048 1.98480 3.27004
C -.51874 4.14915 2.23128
C -.66824 2.89712 3.07584
C -2.06377 2.38072 3.36504
C 3.22861 3.61985 .98005
C 4.27179 2.51102 1.11188
C 4.21776 1.57012 2.24895
C .82737 4.41926 1.55645
C 2.05241 3.61629 1.93534
