94 

C 2.56744 -2.41552 2.19560
C 3.75684 -2.01416 1.53165
C 4.45307 -.77174 1.85726
C 2.03821 -1.55415 3.24052
C 2.68029 -.29663 3.47180
C 3.90170 .08397 2.78226
C -1.47632 -2.87305 3.16630
C -.02581 -2.83734 3.20541
C .68621 -1.67783 3.64002
C -2.19535 -1.78681 3.57154
C -1.49524 -.58063 4.00218
C -.07953 -.49300 3.99372
C -2.95554 -3.50935 -.15877
C -2.98497 -3.16637 1.20425
C -1.88174 -3.59862 1.98523
C 4.98089 1.10487 .35984
C 4.31834 1.99665 1.29631
C 5.04604 -.25519 .63958
C 3.82412 1.50268 2.50069
C 2.56930 1.96682 2.99065
C 3.52576 2.92311 .55369
C 2.30040 3.40122 1.03307
C 1.80332 2.91019 2.30130
C .50130 .79541 3.81456
C 1.91331 .85623 3.66416
C -2.29076 .52443 3.67973
C -1.71176 1.76461 3.28088
C -.29364 1.91326 3.36436
C .36984 2.97573 2.59565
C -.40343 3.79142 1.78990
C 4.54032 -.81100 -1.69446
C 4.42722 .60314 -1.98838
C 4.77403 -1.22674 -.40268
C 4.61665 1.53955 -.97743
C 3.70523 2.63190 -.86648
C 3.34840 .76630 -2.90711
C 2.44854 1.83047 -2.81966
C 2.64770 2.80785 -1.76799
C .09124 4.29720 .52007
C 1.36478 3.94683 .06079
C 1.53353 3.64141 -1.34194
C .41309 3.69495 -2.17756
C 1.68242 -2.99383 -2.67062
C 2.84795 -2.64680 -1.99651
C 3.55313 -1.50754 -2.49913
C 2.87887 -.55626 -3.28463
C .19590 2.66701 -3.18395
C 1.11290 1.66040 -3.41064
C .61737 .33561 -3.80236
C 1.54404 -.77404 -3.72406
C 1.05093 -2.07348 -3.58353
C 2.95896 -2.98695 -.58645
C 3.94832 -2.29383 .17182
C .66306 -3.78329 -2.04669
C .68486 -4.03421 -.67285
C 1.84975 -3.57536 .09793
C 1.69679 -3.31958 1.51661
C .44607 -3.59803 2.13343
C -.57157 -3.49969 -2.75084
C -1.77443 -3.67661 -2.13030
C -1.80790 -4.09919 -.74994
C -.60487 -4.25766 -.01414
C -.69698 -4.07976 1.37375
C -2.83579 -2.72349 -2.34957
C -3.46473 -.47208 -2.86967
C -2.61522 -1.55555 -3.12576
C -1.21494 2.44052 -3.29103
C -1.71789 1.16637 -3.58487
C -.78891 .07296 -3.83143
C -1.28236 -1.30180 -3.68677
C -.35094 -2.33408 -3.59067
C -3.03749 .89186 -3.13498
C -4.53913 .91474 -1.38025
C -4.34797 -.46503 -1.76061
C -4.29868 -1.50068 -.79192
C -3.60231 -2.66558 -1.15839
C -4.70961 1.23165 -.06091
C -1.88310 3.32005 -2.38062
C -3.06224 2.92062 -1.73143
C -3.69559 1.74526 -2.23036
C -2.21587 3.96892 .34287
C -1.02371 4.41334 -.35906
C -.86452 4.10395 -1.70149
C -4.05233 2.41547 .49197
C -3.24132 3.26271 -.31490
C -3.51859 .01992 3.05768
C -4.18616 .78609 2.13785
C -3.70753 2.12884 1.82912
C -2.49262 2.61729 2.39018
C -1.82618 3.61462 1.66936
C -4.41575 -1.15820 .62693
C -3.74553 -1.98428 1.62584
C -3.38638 -1.38752 2.84893
C -4.69442 .18458 .94477
