94 

C 4.39285 1.57284 1.21921
C 4.81607 .40115 .66458
C 4.75918 .20649 -.77994
C 4.69793 -1.20106 -1.00057
C 3.96588 -1.69418 -2.07526
C 3.60275 1.55115 2.42074
C 4.58303 -1.85737 .29900
C 3.17384 -2.90640 -1.92630
C 3.15435 -3.58008 -.72425
C 3.83699 -3.00465 .43158
C 1.93973 -4.07413 1.17625
C 2.98413 -3.16471 1.57772
C .76223 -4.09005 1.86314
C 1.12459 1.66696 3.68928
C 1.70321 .41123 3.49948
C 3.02900 .35214 2.88709
C 3.51694 -.89582 2.32766
C 4.49858 -.84381 1.31397
C .82609 -.74784 3.49872
C 1.38652 -2.01893 3.07547
C 2.71174 -2.09299 2.45087
C .50687 -3.08018 2.87027
C .86225 -.76853 -3.64764
C 2.00425 -1.46231 -3.30151
C 1.93764 -2.72712 -2.64598
C 1.92445 -4.17240 -.26560
C .71191 -4.03416 -.96863
C .71250 -3.24260 -2.19521
C -1.77593 -3.01393 -2.05789
C -.50177 -2.61784 -2.66598
C -.42223 -1.41297 -3.43731
C -2.92624 -2.29508 -2.39501
C -2.83975 -1.06367 -3.13945
C -1.61875 -.61510 -3.64153
C -1.49736 .77851 -3.86351
C -1.78703 -3.77470 -.81821
C -.52837 -4.20945 -.23207
C -2.90809 -3.65912 .03052
C -.46113 -4.36348 1.16639
C -.19873 1.41547 -3.94595
C .97585 .69108 -3.77664
C 2.14549 1.37598 -3.23129
C -.34457 2.74639 -3.43917
C .73681 3.36229 -2.83947
C 2.00431 2.69969 -2.80959
C -1.64323 2.86845 -2.86076
C .55509 4.06243 -1.60790
C -.67416 4.06367 -.94193
C -1.83035 3.46057 -1.60668
C -3.81702 -.14630 -2.63475
C -3.49732 1.22167 -2.50646
C -2.39026 1.68030 -3.24997
C -3.85485 1.93699 -1.28802
C -2.99555 3.03174 -.82221
C -2.99497 3.34034 .53575
C 3.26013 .59575 -2.68761
C 3.23500 -.78766 -2.89625
C 2.71246 3.18954 -1.63762
C 3.71114 2.41957 -1.01331
C 4.06056 1.12070 -1.59469
C 3.91768 2.64820 .36630
C 1.82192 3.99873 -.89205
C 1.87162 4.02755 .51525
C 2.99280 3.41793 1.12496
C 1.68461 2.86043 3.10007
C 2.87038 2.78552 2.42891
C -1.82413 3.88453 1.20420
C -.64990 4.19145 .52054
C .61417 4.13792 1.25271
C .59951 3.66912 2.58094
C -4.46174 1.47243 1.05871
C -3.67109 2.50306 1.48760
C -2.81543 2.31876 2.63256
C -1.79497 3.32651 2.52778
C -.59216 3.13782 3.15883
C -4.58793 -.83859 -1.63208
C -4.98764 -.15235 -.50289
C -4.64221 1.24798 -.34828
C -4.40145 -2.08029 .90597
C -4.02529 -2.82083 -.29276
C -4.06120 -2.18768 -1.51984
C -4.85988 -.78578 .80271
C -1.50257 -3.82827 2.00060
C -3.47109 -2.41755 1.94893
C -2.72021 -3.54785 1.46179
C -.29535 1.84172 3.73640
C -2.52132 1.02870 3.10644
C -1.17148 .76521 3.61253
C -.60332 -.57266 3.56333
C -4.39940 .20023 1.74135
C -3.35513 -.07346 2.64882
C -2.85382 -1.42968 2.74166
C -1.48859 -1.67205 3.22274
C -.90963 -2.91118 2.95069
