94 

C -.68706 -3.40387 2.46244
C .67293 -3.08714 2.44416
C 2.49313 -1.39751 2.72463
C 3.34570 -2.26916 2.02690
C 1.09543 -1.79111 2.92890
C .11063 -.80347 3.25882
C 4.11467 .39113 2.27532
C 2.16946 2.32935 2.75660
C 1.85987 .99263 3.08863
C 2.88427 -.01524 2.84370
C 1.50100 -3.81968 1.49305
C 2.80296 -3.38494 1.28262
C -1.31630 -4.20111 1.40478
C -.55973 -4.63841 .35358
C .87744 -4.50233 .41115
C -3.85066 -1.81702 2.15806
C -2.89797 -2.78474 2.26960
C -2.64218 -3.66771 1.17356
C -3.62328 -.52063 2.76374
C 1.15255 3.21327 2.34424
C -.18771 2.88697 2.48613
C -.54018 1.61202 3.05259
C .47865 .62282 3.24586
C -2.89293 2.15347 2.55057
C -1.95132 1.24048 3.05750
C -2.32875 -.14136 3.18430
C -1.28365 -1.16238 3.26332
C -1.64284 -2.48571 2.94031
C 1.32866 -4.24110 -.89921
C 2.53320 -3.55425 -1.13341
C 3.38842 -3.39575 -.01795
C 4.45470 -2.42471 -.02206
C 4.65311 -1.64506 -1.14637
C .16924 -4.04845 -1.75243
C -1.08949 -2.50749 -3.07942
C .16479 -3.00092 -2.70150
C 1.33275 -2.14273 -2.84853
C 2.56871 -2.54670 -2.19153
C 3.64146 -1.66331 -2.19658
C -2.22556 -3.67874 -1.24335
C -.99400 -4.34084 -.99710
C -4.67512 -.18687 -1.47869
C -4.15504 -1.50157 -1.49653
C -3.22507 -1.79261 -2.51845
C -2.28104 -2.88440 -2.40076
C -3.10423 -3.34541 -.11685
C -4.55507 -1.64170 .91856
C -4.08782 -2.27008 -.25108
C 4.18105 1.83240 -1.82055
C 5.13170 -.28159 -1.01282
C 4.46977 .50118 -2.03606
C -1.24153 -1.15214 -3.52900
C -.18591 -.25685 -3.50162
C 1.15568 -.78397 -3.25232
C 2.23929 .15596 -3.08937
C 3.49369 -.33017 -2.69618
C 2.92679 2.36577 -2.28408
C 1.95082 1.56696 -2.88913
C 4.51112 2.45937 -.55435
C 4.98417 1.66633 .48689
C 5.31376 .27578 .25246
C 4.86466 -.47633 1.41676
C 4.47141 -1.79187 1.28625
C 3.49649 3.46542 -.29437
C 4.32006 1.73722 1.78247
C 3.36786 2.68967 2.02795
C 3.00735 3.65074 1.00117
C .56816 2.04104 -2.88571
C 2.55661 3.43470 -1.37447
C -1.86269 1.57913 -3.10366
C -.49112 1.16736 -3.28591
C -2.12390 2.83484 -2.51071
C -1.07588 3.58812 -1.95852
C .25961 3.22742 -2.14409
C 1.22310 3.77867 -1.20259
C .76727 4.16180 .11299
C 1.63518 3.98284 1.19436
C -4.27559 2.10813 -1.58509
C -4.09428 .84454 -2.27676
C -2.93404 .59072 -3.04400
C -2.59959 -.75623 -3.24709
C -3.31423 3.08277 -1.70728
C -5.05259 -.27935 .92575
C -4.90447 1.84330 -.30543
C -5.17772 .41810 -.25721
C -2.91676 3.86054 -.55010
C -3.41126 3.50955 .70775
C -4.44658 2.50376 .83058
C -4.15552 1.72998 2.02660
C -4.49588 .39130 2.09439
C -1.53427 4.17686 -.69800
C -.66080 4.16445 .39283
C -1.13052 3.61334 1.64282
C -2.47543 3.30695 1.77346
