94 

C -1.14304 .65133 -3.60702
C -2.10712 1.55288 -3.20352
C -1.75685 2.82628 -2.66645
C -1.22989 4.41484 -.44151
C -.14653 4.02072 -1.25018
C -.41918 3.15328 -2.39192
C 1.99778 2.50359 -2.48558
C .61362 2.29595 -2.92570
C .24657 1.07398 -3.57836
C 2.96382 1.56611 -2.86173
C 2.58508 .31805 -3.47239
C 1.26087 .06532 -3.82444
C .88112 -1.29563 -3.91658
C 2.27982 3.34649 -1.33248
C 1.18646 4.03965 -.66669
C 3.46073 3.10796 -.59902
C 1.31134 4.32104 .70665
C -.50739 -1.69876 -3.84328
C -1.51498 -.77153 -3.61436
C -2.72233 -1.20760 -2.90625
C -.53700 -3.01066 -3.26130
C -1.66064 -3.40620 -2.54838
C -2.77684 -2.51250 -2.42460
C -.15455 -4.47161 .64821
C -1.50589 -4.11572 -1.33488
C -.22289 -4.31995 -.77910
C 3.42592 -.72301 -2.95809
C 2.87283 -1.98435 -2.65804
C 1.65436 -2.29325 -3.29311
C .76201 -3.31208 -2.77102
C 2.16328 -3.48396 -.73789
C .95016 -3.85561 -1.48331
C -3.61476 -.21079 -2.30327
C -3.37870 1.12961 -2.61793
C -3.43921 -2.82362 -1.16455
C -4.17998 -1.83298 -.46281
C -4.35499 -.52212 -1.09037
C -4.22375 -1.94047 .93936
C -2.67048 -3.78887 -.49617
C -1.31967 -4.16266 1.50107
C -2.56409 -3.76887 .92393
C -3.34964 -2.84251 1.62871
C -4.33183 -.75157 1.75517
C -4.64936 .44536 1.17811
C -4.77132 .54593 -.27038
C -4.50798 1.90717 -.61110
C -3.84630 2.19924 -1.79847
C -3.19862 3.62509 .55828
C -4.11820 2.60686 .60834
C -4.04719 1.64707 1.67972
C -3.33326 -.80676 2.78636
C -2.53955 .30382 3.09823
C -2.93518 1.59104 2.54987
C -.62215 2.45712 3.00417
C -1.97408 2.67242 2.50210
C -2.19725 3.72234 1.58660
C .36747 3.36748 2.62798
C .14996 4.30687 1.55315
C -1.08986 4.42580 .99813
C 1.20878 .84755 3.53973
C .68260 -1.52228 3.83208
C -.70635 -1.28395 3.69151
C -1.16331 .06830 3.55058
C -.19844 1.14441 3.48845
C 1.61109 -.48724 3.74258
C -2.79763 -2.14216 2.76584
C -.85941 -3.56673 2.67540
C -1.51608 -2.40397 3.21913
C -2.58340 4.00411 -.71040
C -2.85446 3.26332 -1.84009
C 2.84523 -1.01651 3.14875
C 4.45994 -.77616 1.37984
C 3.72661 -.17824 2.42074
C 3.45246 1.24966 2.38704
C 2.20558 1.75972 2.97925
C 1.76277 3.01530 2.59294
C .58418 -3.66043 2.65459
C 4.04234 -2.04983 .85446
C 3.06544 -2.81108 1.48718
C 2.62339 -2.34459 2.77227
C 1.32452 -2.72114 3.29702
C 4.40705 -.10960 -2.10277
C 4.77573 -.75777 -.93919
C 4.14034 -2.01258 -.58006
C 3.16776 -2.61989 -1.37773
C 2.16646 -3.61647 .67453
C .99745 -4.14808 1.33785
C 4.77622 1.37484 .28057
C 4.37305 2.05349 -.94259
C 4.15243 1.31898 -2.09020
C 4.96276 .00715 .27864
C 2.36025 3.71400 1.47974
C 4.07803 2.00389 1.38175
C 3.44660 3.18074 .84662
