94 

C -1.44035 1.14815 3.82090
C -1.82105 -.16595 3.60307
C -.78852 -1.19577 3.65809
C -1.11048 -2.50247 3.11460
C -2.36649 -2.72710 2.51610
C -.07190 -3.35165 2.69644
C -.07637 1.51467 4.02078
C .95544 .56803 3.96815
C .59186 -.83169 3.82603
C 2.96917 -1.27863 3.11431
C 1.64073 -1.77306 3.44033
C 1.29313 -2.99347 2.88146
C 3.26478 .06619 3.15404
C 2.27427 1.03647 3.56810
C 2.41605 2.33084 3.05504
C -.16998 -4.07032 1.47400
C -1.33018 -4.02387 .69963
C -2.49000 -3.53089 1.35349
C -3.64228 -3.06848 .61092
C -3.57671 -3.02199 -.76357
C 1.14365 -4.12270 .87175
C 2.52845 -3.50657 -.99701
C 1.29277 -3.94369 -.55538
C .09010 -3.69190 -1.37202
C -1.20701 -3.86293 -.75828
C -2.33755 -3.38527 -1.43833
C 3.76458 -1.88250 2.04304
C 3.27330 -2.96564 1.31540
C 2.05446 -3.57591 1.77257
C 3.55084 -3.02935 -.08332
C -4.82078 -.90582 .67602
C -4.79866 -.87630 -.78570
C -4.22590 -1.95987 1.34905
C -4.15750 -1.89721 -1.47941
C -3.29609 -1.57487 -2.56730
C -4.61977 .47467 -1.20397
C -3.76788 .81442 -2.27513
C -3.08274 -.25420 -2.98021
C .44343 -.61653 -4.26730
C -.83498 -1.00248 -3.86617
C -1.86083 .02310 -3.73624
C -1.48364 1.36194 -3.89998
C 2.66625 -2.77657 -2.23126
C 1.52309 -2.46247 -3.01615
C .20657 -2.92180 -2.58036
C -.95764 -2.25363 -3.11702
C -2.20196 -2.54272 -2.56904
C 1.62097 -1.34430 -3.84819
C -4.06566 2.51591 .03550
C -4.63880 .42360 1.16097
C -4.68628 1.30158 -.00088
C -3.32027 2.98130 -1.11583
C -2.06335 2.39776 -3.06712
C -3.17458 2.15309 -2.26795
C -3.36899 2.93668 1.22924
C -3.21568 2.04639 2.32598
C -3.78727 .70616 2.24887
C -3.10048 -.39651 2.90389
C -3.38388 -1.69327 2.47244
C -2.11115 2.25871 3.15643
C -2.28519 3.74408 .81358
C -1.10731 3.84603 1.56948
C -1.13310 3.24269 2.85227
C 1.29333 3.20531 2.94097
C .09165 2.84383 3.50017
C -1.00417 3.26042 -2.62862
C -1.00285 3.80046 -1.33607
C -2.24102 3.75020 -.64033
C .25099 3.89586 -.60283
C .17656 4.01662 .87414
C 1.32454 3.80503 1.61846
C .20864 2.83434 -3.25080
C 1.42965 2.89953 -2.58399
C 1.46237 3.48141 -1.23490
C 3.68747 2.43467 -.88171
C 2.65951 3.25296 -.41392
C 2.56688 3.41541 1.00099
C 2.15752 .92169 -3.89933
C .81095 .75839 -4.38923
C -.12632 1.73256 -4.13442
C 3.59527 1.75695 -2.16018
C 2.47678 1.96501 -3.01512
C 3.73853 -1.88180 -2.08997
C 4.22991 .51583 -2.04946
C 3.71469 -.62084 -2.75192
C 2.69347 -.39864 -3.68699
C 4.51183 -.84228 1.40239
C 4.74396 .38800 -.68320
C 4.72624 -.85894 -.00696
C 4.27187 -2.01192 -.73153
C 3.26919 2.58280 1.88874
C 4.44063 1.58978 .00657
C 4.16826 1.59039 1.40005
C 4.23131 .36339 2.09303
