50

 C     -2.6806885502     -2.6922752328     -0.1237055281
C     -1.364559475     -3.2863398102     0.0234139382
C     -0.7977387581     -2.8464407717     1.2317915148
C     -2.9130943783     -1.8223771332     0.9909108459
C     -1.7710237952     -1.8627082405     1.8159435764
C     -3.3360372673     -0.529120055     0.4773284417
C     -2.6032696112     -1.8645475675     -1.2511481548
C     -3.0749560936     -0.5285389898     -0.9475557141
C     -0.6127304215     -3.0905675683     -1.186686791
C     -1.345832525     -2.0749617556     -1.9564390033
C     0.7728774854     -3.0239396639     -1.0928528361
C     0.6237199675     -2.6448405625     1.3433608722
C     1.4360862621     -2.8857041648     0.197887113
C     1.0744770363     -1.6305874787     2.2873182367
C     -1.2595838649     -0.6624367369     2.4531568055
C     0.1220313252     -0.589402624     2.7517409606
C     -3.0277559079     0.6202197569     1.2115257085
C     -1.9350636744     0.5781558523     2.2240606788
C     -2.9133187511     1.8173235452     0.5150335673
C     -2.5030148392     0.6065823275     -1.600031948
C     -2.6753857686     1.8615886946     -0.9008233064
C     -0.6754219968     -0.968965857     -2.5281390185
C     -1.2708288519     0.394715588     -2.4170951506
C     1.439093506     -2.1435763617     -1.9928206985
C     0.7698659793     -1.0979599874     -2.6454419185
C     2.6724682626     -2.0892966049     -0.0179420308
C     2.6535300872     -1.6352637809     -1.36215421
C     2.3399862623     -1.0631145015     2.1917660986
C     3.1278614559     -1.1972516485     0.9770935807
C     0.8231028154     0.6636167003     2.7560607417
C     2.205596565     0.3619991696     2.4916979647
C     -1.2121576723     1.8202238325     2.160604525
C     -1.8919357305     2.6507988263     1.1912533554
C     0.2207464916     1.8591464297     2.2514877443
C     -1.7345270805     2.9257705658     -1.079673406
C     -1.2104735833     3.3658936547     0.2550597805
C     -0.3688097041     1.4833569543     -2.5353680194
C     -0.636122752     2.7355825095     -1.8719490501
C     1.6593248657     0.0660452292     -2.5466325525
C     2.8253879465     -0.271753901     -1.7203983406
C     1.0919634497     1.3098920224     -2.4806769252
C     3.5109185619     0.1264481016     0.5881976599
C     2.8946079545     1.0758818823     1.5366922186
C     3.257138368     0.6247952294     -0.7100745539
C     0.9869846046     2.6607558107     1.2408711691
C     0.2427471974     3.3556965178     0.2237313099
C     0.5840447556     3.1472000955     -1.1404665699
C     1.6355620965     2.3110062879     -1.5389463781
C     2.2743555241     2.1588022461     0.8289834363
C     2.5698512267     1.9204711685     -0.56995074


