50

 C     -3.3994925506     -1.9633706323     0.7729735669
C     -3.5825586561     -0.719280524     1.3857616943
C     -4.0572273795     0.1906199179     0.3621554818
C     -3.3508067243     -1.7223967081     -0.6900173397
C     -3.7913625396     -0.4500330373     -0.976878518
C     -2.0628285021     -2.1484594693     -1.1722348821
C     -2.1213510675     -2.4636456054     1.1396760446
C     -1.3729295394     -2.7434000335     -0.030278184
C     -2.358894717     -0.3816480124     2.1362911319
C     -1.4874901097     -1.5422384165     2.0583450402
C     -1.7818988568     0.9221679803     2.0525249893
C     -3.5656777259     1.4525246766     0.3243344821
C     -2.4983608242     1.9077361086     1.2308973472
C     -2.9693418327     0.4765131515     -1.7460866002
C     -3.1059468812     1.7401638114     -1.0704124402
C     -1.2799674322     -1.3047473858     -2.0198124845
C     -1.6716609383     0.0947607739     -2.2454372314
C     0.1016782766     -1.6628505196     -2.1036205821
C     0.0423668772     -2.8120294926     0.0395363866
C     0.696445982     -2.6209005944     -1.2187006276
C     -0.0796471476     -1.4389439256     2.090581345
C     0.707266813     -2.3650111602     1.2448265142
C     -0.3204459347     1.0532579894     2.2076938987
C     0.49730863     -0.1433787597     2.4090166458
C     0.3692751241     2.2020213632     1.6048026285
C     -1.7260471062     2.7774364164     0.4571021051
C     -2.0533441469     2.5992491972     -0.984659715
C     -0.3359503169     2.9097054501     0.5823733623
C     -0.5689043892     1.1018139171     -2.2751767557
C     -0.8189783512     2.3529629928     -1.6445507423
C     0.2203977333     2.8916693737     -0.7687357984
C     1.1540318077     -0.7224218039     -2.4901859164
C     0.8621238742     0.6943983658     -2.3938960309
C     2.1051703281     -2.4213668739     -1.2523524741
C     2.3991521922     -1.239332313     -2.0874187266
C     2.127406109     -2.1963516754     1.1843530022
C     2.8315684011     -2.3246300502     -0.0948304654
C     1.9448223785     -0.0483375281     2.3690120917
C     2.7325170589     -1.1334012753     1.8652592157
C     1.796263392     2.2125061396     1.4490444718
C     2.5895318065     1.1575798347     1.9779778319
C     1.5427397004     2.5904550021     -0.9700346621
C     1.9134107401     1.502150569     -1.8740213965
C     2.3745812814     2.5182757998     0.1744736007
C     3.3988710808     -0.4599533013     -1.4268825554
C     3.7847281238     -1.1909856021     -0.2284478781
C     3.8030209349     -0.5385252196     0.9968483683
C     3.7228108712     0.8676152448     1.08997659
C     3.1765274239     0.9443513047     -1.3449629186
C     3.467097729     1.5977055389     -0.0961999117


