50

 C     3.7750161356     0.5146131307     0.0999200236
C     3.2741359302     1.1664037119     -1.0023516423
C     2.4971703889     2.3402295248     -0.5753871425
C     3.192372106     1.2062242489     1.2760911149
C     2.3204027613     2.2789755737     0.8334812105
C     2.7134912148     0.2236478941     2.1105855613
C     3.5686174235     -0.9204888093     0.2459678042
C     3.0035959163     -1.1100582341     1.5489658656
C     2.9900731111     -1.6349788428     -0.8301221699
C     2.4964162258     0.4869394289     -2.0278380296
C     2.3953850617     -0.8981690188     -1.9732567106
C     1.3955294345     2.4772006414     -1.4330737358
C     1.3211187363     1.308272415     -2.3158400881
C     0.2187483058     3.0219396317     -0.8958577994
C     0.987548936     2.4138397574     1.3895314088
C     0.0033382731     2.9967306924     0.5480189288
C     1.3683375138     0.2356049293     2.6056623598
C     0.521908728     1.3653220884     2.3568850698
C     1.8712144834     -1.9167190098     1.7777888174
C     0.8608211804     -1.1135518542     2.4912620908
C     2.0602182074     -2.6649139014     -0.5182124903
C     1.4328896126     -2.7843025341     0.7539495649
C     1.1204923974     -1.5229295298     -2.3213354378
C     1.0008963893     -2.6799239508     -1.5097240203
C     0.0566911307     0.7391525685     -2.6351474826
C     -0.0566909366     -0.739189191     -2.6351372523
C     -1.0008964075     2.6799028493     -1.5097613531
C     -1.1204922939     1.5228973522     -2.3213563687
C     -1.4328899014     2.7843127735     0.7539105886
C     -2.0602183087     2.6649067024     -0.5182497218
C     -0.86082148     1.1135860799     2.4912462141
C     -1.8712148893     1.9167435726     1.7777618951
C     -0.5219086419     -1.3652896497     2.3569043897
C     -1.3683375089     -0.2355685152     2.6056652089
C     -0.0033383989     -2.9967236239     0.5480608442
C     -0.2187483033     -3.0219525012     -0.8958162069
C     -0.9875488934     -2.4138208099     1.3895650528
C     -1.3211186497     -1.3083047194     -2.3158218372
C     -1.3955292338     -2.4772204103     -1.433039506
C     -2.3953851569     0.8981416637     -1.9732692677
C     -2.9900733305     1.6349673233     -0.8301451273
C     -2.4964162458     -0.4869676125     -2.0278313877
C     -3.0035963332     1.1100797927     1.5489503035
C     -2.7134914596     -0.2236187047     2.1105883634
C     -3.5686176922     0.9204922844     0.2459547924
C     -2.3204027796     -2.2789640169     0.8335126532
C     -2.4971702972     -2.3402374375     -0.5753545811
C     -3.2741359578     -1.1664176165     -1.0023355555
C     -3.192372095     -1.2062063998     1.2761077616
C     -3.7750164087     -0.5146117375     0.0999270264


