50

 C     -3.1706123861     -1.0836307557     -1.7630376911
C     -3.4293910084     0.2696852836     -1.315192449
C     -3.5898197677     0.2733108759     0.1052438445
C     -2.9788553549     -1.8998444434     -0.6517172069
C     -3.2540627769     -1.1046137581     0.5417386189
C     -1.6973779249     -2.5864945198     -0.7892727058
C     -1.950393375     -1.078047221     -2.5278527865
C     -1.0715395842     -2.0756534721     -2.0026988377
C     -2.4763667913     1.1302777289     -1.9519369778
C     -1.486689459     0.2581891473     -2.6450238839
C     -2.0202651807     2.2388737991     -1.2397068208
C     -3.0572365314     1.3675265157     0.8237552261
C     -2.4527351747     2.423890684     0.1087661036
C     -2.2344992121     1.1517077207     2.0361821599
C     -2.4621256874     -1.2977705342     1.6585018314
C     -2.0148259799     -0.1496695457     2.4702738934
C     -0.9016517715     -2.8419865698     0.3491884144
C     -1.343830276     -2.261409488     1.6235557359
C     0.5048820867     -2.9801894277     0.1451948746
C     0.3277889489     -1.8992721726     -2.0901448339
C     1.0945223458     -2.6353864318     -1.1202736535
C     -0.0861531316     0.5402195413     -2.610175844
C     0.8456394446     -0.5887010882     -2.5445271835
C     -0.608128735     2.6188889387     -1.3180820283
C     0.3321651103     1.860074135     -2.064274177
C     -1.291921508     2.8846992538     0.8628386194
C     -1.1110159536     2.0826280378     2.0251686633
C     -0.2269283663     3.1535346712     -0.0101660102
C     0.2373657417     1.6612128871     2.3886783549
C     -0.7392426731     -0.4941152782     3.0125072917
C     -0.3758261602     -1.8241967768     2.5303484357
C     0.3930544407     0.3160801744     2.9136301189
C     1.4906986138     -2.5994279078     1.1846780682
C     1.0266875587     -1.8639375103     2.297766034
C     1.5454760742     -0.5342926646     2.5341547253
C     2.4666915119     -2.2973433056     -0.8763994514
C     2.6811454096     -2.1989313105     0.5723083689
C     2.2388409167     -0.306550328     -2.290386946
C     3.0450747594     -1.2160328496     -1.4836920554
C     1.7205446528     2.0454721579     -1.7067641493
C     2.6460734488     0.9931548558     -1.9311448008
C     1.0915279822     2.9744095223     0.4674005905
C     1.3356434907     2.1777785749     1.6680739363
C     2.0813460183     2.6596552696     -0.4590461859
C     2.6454475407     -0.0169813929     1.7861619462
C     3.303620933     -0.9310501947     0.8448420793
C     3.7522433167     -0.433726894     -0.4353001744
C     3.5555219376     0.8932234769     -0.7526767981
C     2.570802508     1.3953674531     1.4335925215
C     3.0986919781     1.8293941364     0.1949421945


