50

 C     -3.6457438679     -1.6621334998     0.3562647247
C     -3.6371561974     -1.1086295878     -0.994095926
C     -3.8972544627     0.2560321855     -0.9107380862
C     -3.725051585     -0.5593140507     1.3224010736
C     -3.9512226665     0.5919510921     0.5621420203
C     -2.5315971953     -0.6237115835     2.1324715207
C     -2.4794110421     -2.3757674982     0.5595108936
C     -1.8034999169     -1.8289288188     1.717787939
C     -2.4432973945     -1.6008414044     -1.6630627728
C     -1.721150513     -2.4759449801     -0.6985246411
C     -1.6958310966     -0.7174315104     -2.426881994
C     -2.9956202152     1.2020835913     -1.5204448638
C     -1.9483061434     0.7231282973     -2.3658720757
C     -3.1702889444     1.7509000874     0.7511681795
C     -2.6685653356     2.2093252015     -0.555531602
C     -1.748539605     0.5559800556     2.3867812845
C     -2.087552843     1.7629698998     1.6551098792
C     -0.3634040454     0.3631538198     2.6764860646
C     -0.40653147     -1.920794648     1.7952938301
C     0.2668402045     -0.9103455419     2.5414437332
C     -0.344327932     -2.5409443075     -0.6720301505
C     0.3443290377     -2.5409168715     0.6721330696
C     -0.2668400519     -0.9104486615     -2.5414068641
C     0.4065322485     -1.9208671875     -1.7952162483
C     -0.6675530013     1.3526161505     -2.3694237086
C     0.363403528     0.3630456048     -2.6765008219
C     -1.3554103147     2.6693637752     -0.3950906684
C     -0.9993524448     2.5118666888     1.0112305095
C     -0.3421336854     2.3754731993     -1.3924302476
C     0.6675520474     1.3527127065     2.3693688271
C     0.3421321501     2.3755300138     1.3923338198
C     1.6958314006     -0.7173322658     2.4269111245
C     1.9483057247     0.7232256063     2.365842925
C     1.7211517614     -2.4759159571     0.6986248418
C     2.443298489     -1.6007728189     1.6631279088
C     1.8035007966     -1.8289976541     -1.7177141697
C     2.479412299     -2.3757891832     -0.5594148886
C     1.7485390423     0.5558843798     -2.3868039137
C     2.5315975829     -0.6237964642     -2.1324465971
C     0.9993509     2.5118265127     -1.0113326054
C     1.3554086885     2.6693807617     0.3949822346
C     2.0875516694     1.7629042694     -1.6551813916
C     2.9956198024     1.2021475044     1.5203964049
C     2.668564244     2.2093499032     0.5554420515
C     3.1702882557     1.7508721112     -0.7512392724
C     3.6371573425     -1.1085871429     0.9941411125
C     3.6457448091     -1.6621455638     -0.3561974483
C     3.7250523199     -0.5593651781     -1.3223787835
C     3.8972548466     0.2560717575     0.9107279735
C     3.9512227793     0.5919312043     -0.5621662047


