50

 C     3.6808238374     -0.2781009217     0.2811962395
C     3.3541392883     -1.5439352673     -0.0788409874
C     2.8951085974     -1.5100812065     -1.5014410637
C     3.4904706739     0.6021809776     -0.9100539112
C     2.7423423667     -0.1484622922     -1.9078840611
C     3.1211433956     1.8346905363     -0.4733914094
C     3.083447498     0.398223585     1.4281886555
C     2.9843129251     1.7614925435     1.0280639782
C     1.9883935165     -0.2243953823     2.1299259486
C     2.3752152864     -2.2890729114     0.6858619793
C     1.6938375438     -1.6507047959     1.8080774096
C     1.8411592001     -2.3832710848     -1.5838203846
C     1.6128050526     -3.0190414418     -0.2644465151
C     0.5904868998     -1.9921930323     -2.1342542396
C     1.4651988437     0.3441610267     -2.3465403355
C     0.3613946992     -0.6295791763     -2.5373933205
C     1.954238102     2.4740862351     -0.9954264005
C     1.1111281037     1.7392757185     -1.9564576943
C     1.8970149736     2.5346269531     1.3490787892
C     1.3446261425     3.1382668807     0.1166373128
C     0.8661453646     0.6528120333     2.5506293823
C     0.8176075554     2.0155782988     2.1120536767
C     -0.4197078306     0.0656328735     2.8082176629
C     0.3824947328     -2.1422291681     2.0719682339
C     -0.5907134409     -1.3170070761     2.7254199011
C     0.230965526     -3.2150364739     -0.1261651355
C     -0.41913353     -2.7133507773     -1.3659271408
C     -0.3649974303     -2.9502635705     1.1089460673
C     -1.7125871928     -2.2812481448     -1.3400712023
C     -1.041424493     -0.1857028757     -2.5692596817
C     -2.0854167335     -1.0890072165     -2.1034295779
C     -0.2433965698     2.1051640571     -1.974087764
C     -1.3034818035     1.2199038092     -2.4285123849
C     -0.0301389135     3.2067311844     0.2681245055
C     -0.4085536209     2.5593329193     1.5165943369
C     -0.8229624215     2.9576491106     -0.895007347
C     -1.6910420114     0.6943773163     2.3676912485
C     -1.6723153927     1.9145861567     1.6350227072
C     -1.9151152284     -1.5958875094     2.199257237
C     -1.7579594293     -2.5221129194     1.1419333013
C     -2.4746160036     -2.3104679151     -0.0799129009
C     -2.6108152532     -0.3660778969     2.0184343996
C     -3.2494641226     -0.5882944884     -1.4597655434
C     -3.3854442811     -1.2485363573     -0.1496703087
C     -3.4519492099     -0.2196604207     0.8736506547
C     -2.5068492941     1.6667300913     -1.7925708703
C     -2.1438444225     2.6226560284     -0.7361630702
C     -2.6325011095     2.0842564067     0.5315187321
C     -3.4263704244     0.7822227255     -1.2614274987
C     -3.5237029621     1.0390868551     0.2154273898


