50

 C     -4.1868241938     -0.1646839066     -0.2063208348
C     -3.8515601752     -1.3072164053     0.4987907731
C     -3.0016806757     -2.1736175141     -0.3053887295
C     -3.4041360379     -0.2040026393     -1.4275435113
C     -2.6830301151     -1.4765235523     -1.5152989683
C     -2.6980693247     1.0120333371     -1.5867185377
C     -3.6586333113     0.9816966256     0.5419189445
C     -2.9667981401     1.827200962     -0.3608048948
C     -3.0842462895     -0.9315580351     1.6757485087
C     -2.9672809028     0.5238316823     1.7104770899
C     -1.9304327819     -2.6058340668     0.5261758778
C     -1.9274429236     -1.7295583258     1.7457779525
C     -0.7259101751     -2.8699467434     -0.0673472109
C     -1.3479032827     -1.4963714821     -2.027224712
C     -0.4632656936     -2.4564231919     -1.4366152416
C     -1.395997823     1.0486923033     -2.1887483897
C     -0.7339998661     -0.24398672     -2.5244224314
C     -0.5804153807     2.1881200511     -1.8890034062
C     -1.9455094445     2.6203990387     0.1376582329
C     -0.8895804137     3.0102237781     -0.7612015559
C     -1.7126584962     1.1084993733     2.0818323057
C     -1.3442512487     2.3257010291     1.4184717516
C     -0.6847426946     -1.2163599405     2.224939856
C     -0.6123745421     0.22292904     2.5187931287
C     0.5179804675     -2.7509526614     0.673762666
C     0.548564675     -1.9500600399     1.8687967472
C     0.9542722292     -2.3853385808     -1.5714418588
C     1.5882757455     -2.7207201961     -0.2717258221
C     0.6597525099     -0.2340158034     -2.7207935701
C     1.5103697272     -1.3675908034     -2.350041446
C     0.8737733131     2.1148368407     -1.9567926014
C     1.4690767902     0.9808906259     -2.4938123482
C     0.3071578891     3.2050891509     -0.0297269001
C     0.0531277785     2.7481440117     1.3165610581
C     1.4370282601     2.70885791     -0.7594135359
C     0.6895124621     0.7931877066     2.6473716384
C     1.0461008079     2.055595046     1.966260723
C     1.8165028897     -1.3793063561     2.1960070497
C     1.8433907525     -0.002799351     2.64906772
C     2.8368314515     -2.1672173551     0.0826734025
C     2.9568352199     -1.5853958633     1.3703294706
C     2.8126781472     -0.8671034595     -1.9949799881
C     2.747666287     0.603380072     -2.0172320508
C     3.4957328892     -1.2723035911     -0.8669502135
C     2.5438568211     2.1029500203     -0.0674029894
C     2.364530306     1.8786599786     1.3607408359
C     2.8958709965     0.6956325997     1.9452632715
C     3.6239065103     -0.26209757     1.1940949313
C     3.3061580607     1.111264297     -0.8118805674
C     3.8977869456     -0.0468303255     -0.1426806196


