50

 C     -3.9430544757     -1.3261410724     -0.4598297429
C     -4.2054158569     -0.0037447908     -0.2320026572
C     -3.5471844875     0.8230938109     -1.2341196159
C     -3.0410230416     -1.4044473628     -1.6037255153
C     -2.738698349     -0.0275181086     -2.0566943518
C     -1.9435517873     -2.1404821333     -1.1952869406
C     -3.23067466     -1.8557529402     0.722974538
C     -2.0784266272     -2.4831740257     0.2786984247
C     -3.6819145764     0.4015235301     1.0870843933
C     -3.08692158     -0.769099743     1.7029677524
C     -2.9368166873     1.9019939697     -0.5417700828
C     -2.932699635     1.5783367292     0.9314706034
C     -1.7967100171     2.4488063655     -1.0857041112
C     -1.3844405519     0.362415486     -2.3747081281
C     -1.0175551087     1.698893629     -2.0535465658
C     -0.6264144103     -1.8985361822     -1.707889711
C     -0.2934846841     -0.6419888026     -2.3444003969
C     0.401720797     -2.6505398858     -1.0631772672
C     -0.8814611127     -2.4825900078     1.0792577334
C     0.3309478973     -2.8146214846     0.4171104918
C     -1.8614033062     -0.6099288076     2.3549328535
C     -0.7932280281     -1.589273555     2.1772805938
C     -1.7026582338     1.7733420931     1.6833277141
C     -1.2195291902     0.6779736335     2.451878624
C     -0.8420915374     3.0853333774     -0.211181059
C     -0.7096674522     2.6668800859     1.130933241
C     0.3816574712     2.0767896163     -1.8571261919
C     0.4479548023     3.0376498308     -0.8139872382
C     1.1177461445     -0.2368947087     -2.3874733999
C     1.4670215901     1.1628814405     -2.0884898178
C     1.7174936735     -2.4311289455     -1.3881910138
C     2.1219642793     -1.2310346989     -2.0765348317
C     1.6123902627     -2.5497661881     0.9563514638
C     2.5350718738     -2.550626729     -0.1640304837
C     0.473339761     -0.9662265287     2.4649404138
C     0.2192449104     0.4435271304     2.5840310712
C     1.7179607954     -1.4714984525     1.9457312411
C     0.7271242712     2.5141937673     1.4110934062
C     1.4357537496     2.8797350716     0.2120662606
C     1.2090702164     1.39032803     2.1655065284
C     2.6898923613     1.4710518142     -1.396075719
C     2.613051242     2.2350460317     -0.1400196331
C     3.3914150201     -0.8696018733     -1.5130404473
C     3.5754472912     -1.6713896559     -0.2541011881
C     3.6679409581     0.4463454636     -1.1594504638
C     2.807613204     -0.5515917314     1.8385371499
C     2.5277415385     0.8834170275     1.8972793656
C     3.3269619219     1.4890264584     0.8586548197
C     3.8318196056     -0.735956093     0.8128619205
C     4.1466787585     0.5149731147     0.2375909698


