50

 C     3.3505750254     -1.8103467404     0.131143096
C     2.3464092603     -2.6911653959     -0.2222486993
C     1.404767407     -2.8153932249     0.8888754226
C     3.0016477381     -1.2225630699     1.4141423903
C     1.7948787131     -1.84791516     1.8938300861
C     3.0659511811     0.182147538     1.3095016258
C     3.3497294628     -0.7221630947     -0.8385780165
C     3.3591174362     0.5078700179     -0.1232427932
C     1.8046664043     -2.2631886172     -1.5269599948
C     2.3880602121     -0.9705562686     -1.8690021452
C     0.4916076343     -2.4991701234     -1.7899622074
C     0.0448383289     -3.1204065415     0.6303030472
C     -0.3664536912     -3.1831617919     -0.7886217392
C     -0.9204397819     -2.6323585257     1.5754403582
C     0.7768512812     -1.0455877362     2.524021425
C     -0.5619003141     -1.503872424     2.4216586097
C     2.1183804781     0.9846185399     1.9819886859
C     0.9855249106     0.3823961938     2.611260154
C     1.7106059688     2.2741777068     1.4336826862
C     2.7480684597     1.5989888652     -0.7038316942
C     2.0966718825     2.6104960832     0.1210846983
C     1.5494433542     0.0999311716     -2.3478168489
C     1.9365725067     1.4197627165     -1.9229320294
C     -0.3334435082     -1.5007034981     -2.4777082922
C     0.1275537995     -0.1409231707     -2.6272647651
C     -1.6716164826     -2.8777512364     -1.1442709645
C     -1.6638317082     -1.8044770137     -2.1668297613
C     -2.2906829966     -2.4453779436     1.1910318903
C     -2.6422318147     -2.5173037218     -0.1693093329
C     -1.6893132897     -0.5655037293     2.4140993073
C     -2.7407833547     -1.1673358258     1.6918628683
C     -0.1281118322     1.3298666046     2.5201338018
C     0.3467746619     2.5275295905     1.8583133374
C     -1.461752484     0.857142017     2.3528489792
C     -0.534774643     3.284728569     1.0301014015
C     1.1608285898     3.2879929409     -0.7324442595
C     1.0039819232     2.4588877298     -1.95814021
C     -0.078763042     3.671639371     -0.2981574791
C     -0.8680700912     0.9290040456     -2.4466145993
C     -0.376149493     2.2652453839     -2.2200631129
C     -1.0619688267     3.155332073     -1.2963142417
C     -2.5759937058     -0.7981571323     -1.7454489353
C     -3.2845766401     -1.2791753737     -0.5865703006
C     -3.3636605923     -0.4578700664     0.5789717059
C     -2.1922705101     0.5880162006     -1.8727419383
C     -2.3232626875     1.6158804531     1.4607161962
C     -1.8495351531     2.7925407007     0.8633739901
C     -2.1505628782     2.7138933711     -0.6003324391
C     -3.0968127644     0.8920966019     0.4423070973
C     -2.7365473343     1.4522379406     -0.8652900605


