50

 C     3.5971458163     -0.7842698833     -1.7006682077
C     3.7108005576     -1.3385700107     -0.3554637965
C     3.9925050367     -0.3204394217     0.5612326796
C     3.5258803724     0.6317266529     -1.5454168331
C     3.9235530847     0.9565685779     -0.2098137018
C     2.2343968281     1.1053009136     -2.0402929634
C     2.331913035     -1.2039585592     -2.1876907933
C     1.5228796179     -0.0553933822     -2.530260736
C     2.578080397     -2.227914078     -0.1218863851
C     1.737793985     -2.1707295548     -1.3167829289
C     1.9250364945     -2.2052628248     1.1125753058
C     3.1636377797     -0.1634855948     1.7365720073
C     2.1838792292     -1.1244699932     2.0548431046
C     3.1310782624     1.8312305309     0.5130519064
C     2.732944115     1.2072359398     1.790281316
C     1.4722919462     2.0838648831     -1.3283015247
C     1.97146297     2.4766923542     -0.0309792947
C     0.0223341655     2.1351596034     -1.561544583
C     0.1122748247     -0.1545610551     -2.5180225902
C     -0.6523897841     1.0691496358     -2.3037104537
C     0.3218601147     -2.3019602987     -1.2627866848
C     -0.4800734154     -1.4292155787     -2.1068549918
C     0.5141313497     -2.5218946538     1.1684917227
C     -0.2690041683     -2.7490928138     -0.0012317449
C     0.8872597407     -0.7155034715     2.5746174067
C     -0.0740907825     -1.7173774622     2.2105193883
C     1.4305413271     1.5989592269     2.1194279944
C     1.0194200444     2.5349806273     1.050549303
C     0.4480709378     0.6508970844     2.5708304385
C     -0.7747356909     2.7869461772     -0.5639509054
C     -0.2999933953     2.7584401401     0.7981650243
C     -2.1876928811     2.617840213     -0.4785439746
C     -2.0936795561     0.9615405026     -2.2422726677
C     -2.8680545925     1.8114326868     -1.348501333
C     -1.9016314033     -1.4833658759     -1.9588814977
C     -2.6882769341     -0.3117803431     -2.1641476793
C     -1.6992643443     -2.7017309537     0.159854304
C     -2.4975398091     -2.2242208341     -0.8939713711
C     -1.4570871826     -1.4635688092     2.2491615298
C     -2.2836728813     -2.1620362869     1.3709923609
C     -1.0054842413     0.9601005869     2.3973335033
C     -1.357862201     2.1484105825     1.6333270869
C     -2.5454279476     2.2160369474     0.9097662679
C     -1.9591858502     -0.0819407766     2.3782570816
C     -3.8194513041     0.9742016907     -0.5752787549
C     -3.7925130088     -0.2881466681     -1.1494217265
C     -3.6467335843     -1.4404449355     -0.3492465165
C     -3.4212821115     -1.309021051     1.0228399185
C     -3.4962855235     1.140899953     0.8386857235
C     -3.2197604392     -0.00726034     1.6245502662


