50

 C     4.0651366176     -0.0003984402     -1.0101196811
C     3.2813537859     1.1334752596     -1.3848658167
C     3.0862815579     1.9928514678     -0.2737519448
C     4.0416166203     -0.0000907076     0.4583313645
C     3.4780686421     1.2156722529     0.9221282534
C     3.4779534414     -1.2156087236     0.9226353292
C     3.2812453295     -1.1343621479     -1.3843933965
C     3.0860909444     -1.9932467887     -0.2729233499
C     2.0983573913     0.7172405102     -2.1453907283
C     2.0982900407     -0.7183323386     -2.1450924188
C     0.8772819878     1.4411912619     -2.0642683389
C     1.8344921546     2.5669251043     -0.0493870154
C     0.8051018857     2.5130959267     -1.0633826639
C     2.3752572139     1.235650222     1.8118643618
C     1.4312391113     2.2314498063     1.3091986682
C     2.3751426482     -1.2351171421     1.8123798136
C     1.813575584     0.0004041916     2.3385240405
C     1.8342479652     -2.5671156101     -0.0483157609
C     1.4310299352     -2.231036996     1.3101259715
C     0.8771456021     -1.4421352793     -2.0636661271
C     0.8048637971     -2.5136144703     -1.0623359134
C     -0.3552328056     0.7398297385     -2.4325358344
C     -0.3553026546     -0.7408119775     -2.4322275589
C     -1.5875881725     1.4155506021     -2.207802067
C     -0.463360644     2.9523951899     -0.6520773874
C     -1.5929301702     2.5946982024     -1.3975501253
C     0.0718713782     2.2503531943     1.696935986
C     -0.8560535977     2.8937884813     0.7973931951
C     0.4281735538     0.0005375976     2.6701475164
C     -0.415442843     1.1629215692     2.4880348835
C     0.0716580237     -2.249652809     1.6978733115
C     -0.415552765     -1.1618461612     2.4885180473
C     -0.46364011     -2.9526235145     -0.6508458984
C     -0.8563254999     -2.8933753367     0.7985986369
C     -1.5877214587     -1.4163234198     -2.2072105613
C     -1.5931759955     -2.5951342071     -1.3964693348
C     -2.8099852666     0.6814976226     -1.8374670444
C     -2.8100487676     -0.6820016626     -1.8371822474
C     -2.7356400406     2.5443406176     -0.4902249905
C     -2.2278477349     2.62518655     0.8769501169
C     -3.4332360989     1.3832775189     -0.6855790764
C     -1.7942073809     0.7301116762     2.3650075072
C     -1.7942753995     -0.728959117     2.3653130199
C     -2.6925328315     1.4438795252     1.5640887862
C     -3.5476452769     0.6872178053     0.6160847355
C     -2.2280959233     -2.6246112455     0.8780426885
C     -2.7358833906     -2.5442917887     -0.4891653351
C     -3.4333675939     -1.3832438417     -0.6850034861
C     -2.6926682139     -1.4429751047     1.564688109
C     -3.5477115761     -0.6866300638     0.616372761


