50

 C     3.2761093092     -2.0574031363     0.0692638094
C     2.1650571114     -2.8460362877     0.2212278902
C     1.4611763693     -2.4562057983     1.458018709
C     3.2973881333     -1.0680037284     1.1322952083
C     2.1538460125     -1.286975381     1.979056887
C     3.5105024102     0.2097215333     0.5683688793
C     3.1419048827     -1.3031907189     -1.1877095031
C     3.4136663159     0.0558280901     -0.9336564886
C     1.3983270048     -2.7787640118     -1.0380809183
C     1.9402021965     -1.6904172962     -1.8550973942
C     0.0611290639     -2.9610124046     -0.9831369891
C     0.0638747889     -2.5626603179     1.515038174
C     -0.6238151729     -3.1141109462     0.332202314
C     -0.6700133408     -1.5677495932     2.2631689285
C     1.3908410838     -0.1644619813     2.4621200392
C     -0.0166865704     -0.3563070008     2.6523351811
C     2.9110632336     1.3314354704     1.1707673142
C     1.8362590075     1.1539855254     2.1085860575
C     2.5622138047     2.4636146231     0.3388834192
C     2.6932856567     1.0093852742     -1.6652383455
C     2.4323598617     2.2839906973     -1.0470146684
C     1.0382963029     -0.6994639897     -2.4118240941
C     1.4975262806     0.6434385278     -2.3943664612
C     -0.8364886432     -2.2056174026     -1.8609449124
C     -0.4234153222     -0.9599021793     -2.4123542355
C     -1.9514008872     -2.8338514573     0.1191601425
C     -2.1262342891     -2.3735271246     -1.290434214
C     -2.0656937102     -1.2684805801     1.9852526737
C     -2.7368408035     -1.9448745423     0.9536834466
C     -0.9853835185     0.7426857912     2.5221711637
C     -2.2602383025     0.1713261765     2.1695317713
C     0.8578013951     2.2309909711     1.8667661444
C     1.346411791     3.0515267108     0.8260620575
C     -0.5585745091     2.0045693031     2.0222710122
C     1.1569646676     2.7879256541     -1.4977412346
C     0.5425580478     1.7552384464     -2.2492673191
C     0.4872707949     3.3172519658     -0.3342575773
C     -1.401335119     0.1648655047     -2.3694953128
C     -0.8734910498     1.5281538531     -2.1659118876
C     -3.0627250024     -1.3819506713     -1.3317361689
C     -3.5866608081     -1.1825468221     0.0549465288
C     -2.7387927963     -0.1020416691     -1.9048383532
C     -3.1435138399     0.8815809537     1.3213039711
C     -3.7853202432     0.160183498     0.2307260889
C     -3.407228853     0.8485694672     -1.0409113857
C     -1.4392651061     2.6617524311     1.0634728879
C     -0.8568749499     3.126629017     -0.2210482472
C     -1.5813229105     2.4229911637     -1.2813837293
C     -2.6876205417     2.1221841371     0.7800576321
C     -2.8170972368     2.0357312546     -0.7102918912


