50

 C     -4.2391152428     -0.6896952315     -0.9264583809
C     -4.6090167464     0.0361183207     0.2035208791
C     -4.1456823938     -0.6808529799     1.3612782174
C     -3.4711003166     -1.8915046799     -0.5361364796
C     -3.3917435933     -1.8663876143     0.8740064244
C     -2.2718014295     -1.8721320651     -1.3027419449
C     -3.4210719866     0.0986510205     -1.8249037885
C     -2.2455935611     -0.621517428     -2.1212035271
C     -3.8813090223     1.318692346     0.1084330075
C     -3.2728826678     1.4218348379     -1.2142178416
C     -3.1608225745     0.1233504761     1.9569979334
C     -3.0248025686     1.4088724252     1.2305775415
C     -2.0951744894     -1.8788258908     1.4756735419
C     -1.9408643064     -0.6167521853     2.2214415326
C     -1.0491658028     -2.2271007318     -0.718930094
C     -0.9645749016     -2.2551180635     0.7343733701
C     0.1835668424     -1.8930354085     -1.4339329032
C     -0.9805627968     0.0525877304     -2.3558555945
C     0.274318339     -0.6851902569     -2.2083047309
C     -2.0450560103     2.0350873898     -1.312582935
C     -0.9433234863     1.4384702957     -2.0931170316
C     -1.731599504     2.0072443315     1.138299982
C     -1.3816354997     2.5530526435     -0.1308701266
C     -0.6945306716     0.0217985165     2.314883933
C     -0.6144051498     1.4453904083     1.9426705344
C     0.3328686254     -1.9635770917     1.3283837862
C     0.5161445147     -0.7968794218     2.1381371725
C     1.3567354516     -2.4284719539     -0.8753580929
C     1.4425598688     -2.4905408794     0.627183921
C     2.6071941978     -2.0458736352     -1.3651619329
C     1.5744403536     0.0051743016     -2.2632607294
C     2.7503735306     -0.7609403083     -1.9858616281
C     0.2999216723     2.0449096753     -1.691946889
C     -0.004398533     2.7493791829     -0.4593003905
C     1.5634008225     1.4355116826     -1.8880393887
C     0.6617468805     1.962286992     1.7488158503
C     0.9443112005     2.7654743521     0.5555682401
C     1.856426352     -0.2011864131     2.2270828854
C     1.8964906599     1.2369171192     2.0760353559
C     2.7418386553     -2.1681934534     1.00261244
C     3.5480957671     -2.1032196738     -0.2295869207
C     2.9991754501     -0.9643335205     1.7645048672
C     3.9302294401     -0.1400502809     -1.3169909917
C     4.3712539319     -1.0265032163     -0.210985976
C     4.1160201954     -0.3062447386     1.0696249808
C     2.6416437638     1.9359933907     -1.0479958821
C     2.2793773983     2.5330773868     0.1973302301
C     2.9349486973     1.800474577     1.2806816126
C     3.7956491078     1.1196765665     -0.7902334419
C     3.9615045369     1.0241011533     0.7258574027


