50

 C     0.5177752849     3.6404769146     -0.9004302831
C     1.7197203522     2.9499045664     -0.838653796
C     2.0095455155     2.5275455346     0.5351677779
C     -0.0800188409     3.5566379696     0.3995274154
C     0.8290636657     2.827807026     1.2895804014
C     -1.380158437     3.0439696197     0.2620530475
C     -0.3471088105     2.8583297006     -1.7950300058
C     -1.5629935043     2.5701743234     -1.1471967221
C     1.7585245888     1.9317530076     -1.8866458449
C     0.3939771153     1.7991101442     -2.4121088746
C     2.5430398888     0.8367114212     -1.6789510527
C     2.7891774575     1.3559301175     0.7669832003
C     3.2710850575     0.6351695614     -0.4013683621
C     2.4486729204     0.570270009     1.939128096
C     0.3097457179     1.8389466258     2.2195768044
C     1.1408972865     0.7344539297     2.5226099324
C     -1.9468131807     2.2651918019     1.2955651129
C     -1.0989512627     1.6059791786     2.2666838768
C     -2.9883228008     1.392023307     0.9406329555
C     -2.2773669425     1.3697342306     -1.4359220002
C     -3.2143548546     0.9532790961     -0.3976430836
C     -0.1961424884     0.5143167878     -2.6140978464
C     -1.6243811608     0.3476941254     -2.2706888518
C     2.0952716595     -0.4607467954     -2.1686288642
C     0.7228475044     -0.644726653     -2.5758737189
C     3.4837090314     -0.7538769787     -0.3238333215
C     2.7757785594     -1.4328464706     -1.402582353
C     2.7421796406     -0.8286300995     1.9873442945
C     3.2309163965     -1.4899142089     0.8706221163
C     0.5636396585     -0.6222810505     2.7431730743
C     1.5411788108     -1.5500096181     2.4248875846
C     -1.659805348     0.2679269415     2.4930760356
C     -2.9092122914     0.2169070286     1.8109806192
C     -0.8290965348     -0.8921702773     2.5035457175
C     -3.6041435306     -0.4236296116     -0.2921953936
C     -3.2977399865     -0.9018148211     1.1030237599
C     -2.1221479722     -1.0028031526     -2.1694655372
C     -3.11524013     -1.3511701233     -1.1599093712
C     0.1717873925     -1.9382968542     -2.2981234411
C     -1.2178648177     -2.0862010894     -2.1895627897
C     2.0866297127     -2.5627027523     -0.8337012634
C     2.3541381292     -2.6389596691     0.562422896
C     1.2622887377     -2.6101515288     1.4822237861
C     0.7879622217     -2.8111853068     -1.2838552461
C     -1.1912426235     -2.0828838983     1.6961922745
C     -2.4841803684     -2.0634969092     1.0263544344
C     -2.5785723164     -2.4907235966     -0.3546832222
C     -1.4823113348     -2.9540819531     -1.0160871715
C     -0.0974956334     -2.8335592081     1.054440028
C     -0.243887135     -3.1833813424     -0.3485558245


