50

 C     -4.107004353     -1.21267752     -0.1254552317
C     -3.2197287796     -1.9836897121     0.7009294872
C     -2.8534096351     -1.2389267103     1.8444883853
C     -4.14229992     0.140385813     0.4397460469
C     -3.4073135638     0.1314694673     1.6401561275
C     -3.7025953645     1.0760289769     -0.5589883311
C     -3.4085256184     -1.0805893211     -1.3601908634
C     -3.2339285036     0.2869100878     -1.6929845061
C     -2.1171740588     -2.5054838735     -0.0755767204
C     -2.2015479045     -1.883384849     -1.3783099293
C     -0.8323617452     -2.6725603428     0.5026971845
C     -1.5112732319     -1.1189787407     2.2538464937
C     -0.4684762052     -1.9449633631     1.7081121926
C     -2.3702400509     1.062779836     1.9037404729
C     -1.2208037463     0.3034507769     2.3844499691
C     -2.7367336801     2.0767495684     -0.3055303567
C     -2.1072655326     2.1558676689     0.9969304549
C     -2.0059120455     0.8300609785     -2.1824064763
C     -1.8247856884     2.0774312748     -1.4662657399
C     -1.0111010346     -1.4176668169     -2.0432133825
C     -0.8580119223     0.0041289432     -2.4027168031
C     0.2002165491     -2.8654112754     -0.4622269492
C     0.1606519881     -2.110475437     -1.6979702435
C     1.5237923693     -2.8691822111     -0.0517131078
C     0.9298821215     -1.5557994279     1.9200125987
C     1.9402049877     -2.2945124514     1.1875438598
C     0.1201012519     0.7875732126     2.3494688508
C     1.2439057047     -0.1769131574     2.3029998974
C     -0.7983535423     2.7126023169     1.0645603528
C     0.2822606738     2.0989956202     1.8302648233
C     -0.5698120193     2.622130763     -1.3775292755
C     -0.1513401433     3.1420762023     -0.119166167
C     0.5096277021     0.5965501447     -2.3594084278
C     0.6039649326     1.939090869     -1.9279382255
C     1.5175928171     -1.6536338277     -2.0136611803
C     2.3944558331     -2.3639965429     -1.130922893
C     1.7281693633     -0.2585823314     -2.2469655848
C     3.2459972667     -1.7561598798     0.9450241921
C     3.4933606109     -1.770851665     -0.5457052586
C     2.542850483     0.3451151153     2.0013246738
C     3.567948395     -0.4856055294     1.3754103507
C     1.5750402768     2.4927434646     1.2566512427
C     1.2897434461     3.0644207389     -0.0111743715
C     1.7859572294     2.4101439455     -1.1858906139
C     2.6695595085     1.645716018     1.3798455961
C     2.9655091216     0.313511273     -1.7295892052
C     3.8893394601     -0.4744027379     -0.9370776168
C     4.2020832466     0.2650723947     0.2767834093
C     2.9185303243     1.622778275     -1.0934237664
C     3.5592516261     1.4906629783     0.2170175647


