50

 C     3.7965004901     -0.3700301134     -0.0138304803
C     3.3135910462     -1.2587773388     0.9168406018
C     2.7407164231     -0.4960948515     2.0501816601
C     3.5988487057     1.0078769518     0.5300197752
C     2.8720779785     0.9138793623     1.768461985
C     3.0936229515     1.7898518249     -0.4976445127
C     3.2709886778     -0.4001884796     -1.3720098373
C     2.850586112     0.939100645     -1.6686661353
C     2.4143110373     -1.4324983978     -1.7531448619
C     2.4017634145     -2.3136544177     0.5604194968
C     2.0930689459     -2.5073639637     -0.8093117501
C     1.5177740629     -1.0670800819     2.3713494009
C     1.3173309327     -2.2759150635     1.5139842394
C     0.3867695442     -0.2167419077     2.7043584229
C     1.745017782     1.74635473     1.9635665498
C     0.5252718164     1.2081965689     2.5056480955
C     1.9599680128     2.6491182734     -0.3231265069
C     1.3442471504     2.7054057589     0.9330003812
C     1.592718537     1.2610422534     -2.2238000056
C     1.104221837     2.4356159615     -1.4990553034
C     1.1750910937     -1.1240801149     -2.5048242377
C     0.6757549455     0.2246136078     -2.634041067
C     0.7945568694     -2.9693610029     -1.1372740373
C     0.2591668188     -2.1474966281     -2.2241117175
C     0.0123972038     -2.6910754192     1.1778335661
C     -0.2380279554     -3.1043121616     -0.1991138579
C     -0.9027609934     -0.7606136003     2.5725142388
C     -1.0926399254     -2.0707551776     1.8790722188
C     -2.0658793455     0.0474936492     2.3400867135
C     -0.6128769513     1.9839759338     2.0227670385
C     -0.0931877886     2.8900373175     1.0234275411
C     -1.9324378957     1.4332272987     1.9342759731
C     -0.2385807789     2.6657888532     -1.4248146214
C     -0.8462913934     3.0790921334     -0.1444714232
C     -0.7734605523     0.4625031277     -2.5525528447
C     -1.1868137678     1.7700112078     -2.0878697121
C     -1.1300857144     -1.9406748569     -2.0324149174
C     -1.5002739974     -2.7176090025     -0.8540620082
C     -1.7049815595     -0.6527318578     -2.2922170993
C     -2.3727932181     -2.0815077141     1.3472844257
C     -3.0057245215     -0.8036574836     1.6673490809
C     -2.5723754055     -2.3072855567     -0.0813279083
C     -2.9761487769     -0.4031950836     -1.6262565176
C     -3.7498613754     -0.3564872622     0.5718289571
C     -3.3976474289     -1.246570642     -0.5705618779
C     -2.796761744     1.9104629501     0.8537057355
C     -2.1944115599     2.6810029844     -0.1725567549
C     -2.437182295     1.9812196882     -1.4544529084
C     -3.7002696303     0.9782525438     0.174555481
C     -3.3348878144     0.9516365539     -1.2290186744


