50

 C     -3.8935893941     -1.5019292622     0.4889726643
C     -3.898162686     -1.0288089509     -0.799228079
C     -3.8464031414     0.42836281     -0.853991249
C     -3.656964757     -0.3097929443     1.3292962211
C     -3.7398082473     0.90266919     0.5068790869
C     -2.4713347791     -0.526200386     2.0401195249
C     -2.710906648     -2.3542109613     0.5864705623
C     -1.9070648349     -1.8434920446     1.6028606302
C     -2.7909908556     -1.5839649161     -1.5901969241
C     -2.0614367879     -2.472915531     -0.7400316555
C     -2.8400119119     0.7557058033     -1.8017376276
C     -2.1304998199     -0.493136364     -2.2051366796
C     -2.0598783901     1.8970956969     -1.5850360096
C     -2.8454109705     1.9569708902     0.7644575037
C     -2.2130284132     2.5894262202     -0.3528267962
C     -1.5372040277     0.5492825517     2.3207940717
C     -1.7812616652     1.8221667061     1.7651764046
C     -0.1647145995     0.1681373323     2.5857831838
C     -0.4942267422     -2.0568621358     1.5756901858
C     0.3160803532     -1.1700508381     2.342070035
C     -0.6683644712     -2.5230122056     -0.8376346622
C     0.1055552621     -2.6698934901     0.4056685624
C     -0.7116484826     -0.5074432407     -2.3387995506
C     -0.0193327041     -1.6944218178     -1.8650593553
C     -0.6340577452     1.9227304833     -1.955932476
C     0.0585277948     0.7572565145     -2.3705727862
C     -0.9070400697     3.0662440699     0.0311492891
C     -0.6117191218     2.6008232318     1.317791782
C     0.029118776     2.8336342175     -1.0440563176
C     0.9598239358     1.0508855359     2.4119346559
C     0.7546942449     2.2374521532     1.629327603
C     1.7524153764     -1.1356296232     2.2009128614
C     2.1720656377     0.2563187083     2.2903528771
C     1.507026023     -2.6798377001     0.3183965567
C     2.3661241587     -2.0093911267     1.2920947869
C     1.3889457108     -1.7058367512     -1.9198663352
C     2.1476278136     -2.5054884922     -0.9613548148
C     1.5313228094     0.7364918149     -2.2443862334
C     2.1874704977     -0.5494103915     -2.2229914582
C     1.361033305     2.6909536642     -0.7439873954
C     1.7693592871     2.5624768556     0.6623143568
C     2.1839253728     1.798475321     -1.5275507219
C     3.2330506881     0.6955905209     1.4717020757
C     2.9891457259     1.8522723002     0.6489100223
C     3.3453095962     1.5072592541     -0.7204159582
C     3.569572908     -1.5938835509     0.5813833203
C     3.4401521822     -1.9811911212     -0.8247044976
C     3.4844048314     -0.7545271263     -1.5835460544
C     3.9640556099     -0.257590658     0.6569257585
C     3.9782483652     0.2702407836     -0.738390945


