50

 C     3.8539952181     -0.6835252101     -0.9769625973
C     3.8539895343     0.6843439694     -0.9764104573
C     3.5912945045     1.1690107814     0.3752917734
C     3.5913041924     -1.169285145     0.374348107
C     3.4543242304     -0.000493347     1.2562929246
C     2.5325170965     -2.0710120314     0.2734953423
C     2.8252383156     -1.1749937477     -1.8940803131
C     2.0466063418     -2.0648258934     -1.1538977222
C     2.8252287692     1.1765446789     -1.8931312674
C     2.1395687251     0.0009901689     -2.4316680698
C     2.5325004708     2.0708107272     0.2751670261
C     2.0465897607     2.0657730259     -1.1522303251
C     1.5540322933     2.1876088993     1.3220858402
C     2.4062945071     -0.0008637876     2.1641376266
C     1.5471760348     1.1749619455     2.3338409188
C     1.5540497367     -2.1886629095     1.320319513
C     1.5471853915     -1.1768331027     2.3328917312
C     0.3109907937     -2.7981431039     0.9674159041
C     0.6535381663     -2.22474455     -1.4435991439
C     -0.1419547134     -2.8280890471     -0.4530256378
C     0.7441322024     0.0010602735     -2.6194539318
C     0.0178347894     -1.2576276394     -2.3720148306
C     0.6535204298     2.2259144492     -1.4418029263
C     0.0178248854     1.2595422531     -2.3709990201
C     0.3109684301     2.7973634765     0.9696742114
C     -0.1419775455     2.8284526117     -0.4507426414
C     -0.8369086537     2.5321368398     1.7199833669
C     0.2916935961     0.7327374481     2.883737304
C     0.2916994325     -0.7350626453     2.8831448342
C     -0.8973620605     1.4160839952     2.6167933514
C     -0.8368883621     -2.5335311066     1.7179387757
C     -0.8973506844     -1.4182030169     2.6156495848
C     -1.5862362687     -2.7288974017     -0.4759270926
C     -2.0256081287     -2.5413977912     0.8730777702
C     -1.381654488     -1.2552273876     -2.4475603344
C     -2.2044584065     -1.9979511396     -1.5028960131
C     -1.381664528     1.2571916963     -2.4465461669
C     -2.0759758781     0.0010669305     -2.6638615339
C     -1.5862582588     2.7292682284     -0.4737240467
C     -2.0256285226     2.5406760489     0.8751289542
C     -2.2044743676     1.99914595     -1.5012826385
C     -2.1365367355     0.6925888624     2.2962106829
C     -2.1365311013     -0.6944591336     2.2956508161
C     -2.8261842285     -1.432482955     1.2143015555
C     -2.8261958975     1.4314798869     1.2154575808
C     -3.3377689199     -1.1555437952     -1.1786339366
C     -3.3445596025     0.0008083546     -2.0358676104
C     -3.3377783185     1.15646838     -1.17770084
C     -3.5120691621     -0.7309639645     0.1806968404
C     -3.5120750164     0.7307899771     0.1812867614


