50

 C     -3.3698003883     -1.3198503794     -1.144701227
C     -3.5567320125     -0.3546236633     -0.1363874729
C     -3.0026269542     -0.8238343527     1.131278945
C     -2.6035307542     -2.3674213251     -0.5769083627
C     -2.4746178695     -2.1452979112     0.8599179208
C     -1.3983434125     -2.5193589793     -1.3181176798
C     -2.52938471     -0.6753548624     -2.1515794325
C     -1.3420394996     -1.420893016     -2.311760717
C     -3.1745754121     0.931036441     -0.6377787128
C     -2.4366613283     0.719922092     -1.9089696529
C     -2.7099833986     1.8838776952     0.2575350683
C     -2.2804885776     0.0940482627     1.9861301267
C     -2.2083342717     1.4711781407     1.6013561983
C     -1.1473268697     -0.4185489918     2.7055346604
C     -1.3020802369     -2.5748148481     1.5006333991
C     -0.7740596754     -1.7851861783     2.5650485438
C     -0.2018480199     -2.983894291     -0.673996103
C     -0.1809706443     -3.1348940591     0.74607313
C     1.0150029536     -2.6700929494     -1.3691864279
C     -0.1046019012     -0.7728903085     -2.6021145502
C     1.0536178652     -1.5711149025     -2.3625417935
C     -1.2258492466     1.440274635     -2.1671139163
C     -0.0106337948     0.7008058709     -2.5379093928
C     -1.8885308285     2.9067175493     -0.2308796462
C     -1.0906071936     2.6879706578     -1.440897206
C     -1.0720259423     2.2911575188     1.8914895423
C     -0.9876492088     3.2781255472     0.8221514741
C     0.0834967005     0.3552829441     2.8328557156
C     0.1589540165     1.704852463     2.4081730225
C     0.6535607974     -1.8747294467     2.5342545152
C     1.0329064798     -2.7209601023     1.4509872028
C     1.2009130097     -0.5654166176     2.6559062029
C     2.2608416139     -2.6730066631     -0.6806772314
C     2.2217038825     -2.4396550563     0.75976342
C     2.3303344024     -0.9798780296     -2.2548780941
C     3.1261988141     -1.7274438606     -1.282985168
C     1.302011333     1.2814074059     -2.22087498
C     2.4233943569     0.4150100419     -2.0128621395
C     0.1778767271     3.2484793407     -1.2064922249
C     0.2322550093     3.6154131075     0.2504441167
C     1.3547756094     2.5346211598     -1.4930108197
C     1.4303432415     2.1342731292     1.8382284528
C     1.4245699788     3.1270965525     0.7706697441
C     2.2248219744     2.6484987294     -0.3183236935
C     2.3576259757     -0.19689693     1.8877508245
C     2.9222234122     -1.1957631224     1.0052653229
C     3.4753754148     -0.7959716869     -0.2860971022
C     3.2356978157     0.5288355661     -0.7743176513
C     2.4420172227     1.1794213269     1.5025838356
C     2.9327835435     1.5294843559     0.1373290139


