50

 C     3.9009877374     0.7396533675     0.2035329676
C     3.8017754078     0.2823912879     -1.1067695321
C     2.7796782765     1.1266213132     -1.807352364
C     3.0697122358     1.978504932     0.2886249152
C     2.308066884     2.1282420853     -0.9468041748
C     2.4134107782     1.9915813036     1.4847746743
C     3.5120058176     -0.1077350905     1.310958318
C     2.6501850887     0.7052383143     2.1608639102
C     3.1050723268     -1.4389450929     1.0401679854
C     3.4971993003     -1.0680858859     -1.3830148874
C     3.1950359779     -1.9244726762     -0.3047413083
C     1.8688500695     0.2528362324     -2.4744033898
C     2.3122144667     -1.0814153684     -2.2619469472
C     0.4697658453     0.5574647335     -2.504099754
C     0.8980411033     2.4364972112     -0.9049561194
C     0.0321313262     1.814433981     -1.9035256622
C     1.0151020436     2.3129067299     1.5676626267
C     0.2870589771     2.7141324694     0.398616034
C     1.4220656233     0.2761663348     2.6399477518
C     0.4118143375     1.3494377657     2.4208422225
C     1.8068738785     -1.9093845296     1.5780881582
C     0.9951334172     -1.0956187966     2.4009228419
C     1.9395386218     -2.61210636     -0.6170146219
C     1.3784768982     -2.0546767124     -1.8079586447
C     1.1368111083     -2.6763907853     0.529091851
C     -0.4696076244     -0.5575422505     -2.5041119019
C     -0.0320110983     -1.8144926552     -1.9034706187
C     -1.8686933054     -0.2529119692     -2.4745130656
C     -1.3783627643     2.0546207375     -1.8081095022
C     -2.3120710564     1.0813462052     -2.2621270195
C     -1.1368447323     2.6764074985     0.528937186
C     -1.939499807     2.6120877225     -0.6172174642
C     -0.9952857138     1.0956920947     2.4008254626
C     -1.8069740787     1.9094330564     1.5779154706
C     -0.4119666602     -1.3493639383     2.4208590368
C     -1.4222324783     -0.2760848812     2.639866793
C     -0.2870842179     -2.7141206416     0.3986824436
C     -0.8979837571     -2.4365246404     -0.9049372419
C     -1.0152010885     -2.3128586936     1.5676708727
C     -2.7795636965     -1.1266763004     -1.807492155
C     -2.3080068954     -2.1282710848     -0.9468842947
C     -3.4971121712     1.0680434236     -1.3832675446
C     -3.1950163779     1.9244626984     -0.3050021992
C     -3.1051378914     1.4389775228     1.0399288398
C     -3.8017050571     -0.2824252583     -1.1070000815
C     -2.6503215233     -0.7051718231     2.1607192463
C     -2.4135050351     -1.9915367486     1.4846849092
C     -3.0697299199     -1.9784953293     0.2884928815
C     -3.5120880866     0.107775642     1.3107338573
C     -3.9010005109     -0.7396471508     0.2033102388


