50

 C     4.2524680299     0.8237091705     0.4317782994
C     4.4529256136     -0.5327433633     0.3912134359
C     4.1689820255     -1.0087222757     -0.9673611347
C     3.7150254217     1.2937514466     -0.870166403
C     3.5826238649     0.1464698702     -1.6902660644
C     2.5578544174     2.0521929605     -0.598115155
C     3.2682182719     1.1755927086     1.4583445211
C     2.3307989996     2.0339566428     0.8798714018
C     3.4562599456     -1.1042688374     1.3307691816
C     2.7456997098     -0.032345355     2.0516172964
C     3.0793076515     -1.8625887516     -0.826631771
C     2.6758026342     -1.9963273125     0.5952236026
C     2.2697513897     -0.1912259326     -2.2183974735
C     1.9974030934     -1.5399262918     -1.7540162142
C     1.3935594231     1.9465575365     -1.4233980987
C     1.1908568637     0.7335731959     -2.2048886933
C     0.2414122345     2.570334224     -0.9041141084
C     0.9970884267     2.0843667878     1.3791009062
C     0.0977919807     2.7699101794     0.5027429515
C     1.3537280144     -0.1535596403     2.3019523047
C     0.4737222858     1.017875246     2.1869631047
C     1.3046559149     -2.2045533856     0.9012493649
C     0.7059775604     -1.4319217939     1.9708236107
C     0.7060143889     -1.955917264     -1.4894137612
C     0.4276108215     -2.617110223     -0.183382376
C     -0.1895400467     0.2182061978     -2.3136781122
C     -0.3913984454     -1.1865319899     -2.0749017912
C     -1.099158387     2.3636485749     -1.4514365624
C     -1.3436927068     1.1349491646     -2.1471650847
C     -1.2820179477     2.8052495371     0.7657918924
C     -2.0376636901     2.8474352071     -0.4736943471
C     -1.0077030409     0.8797016181     2.2905433988
C     -1.8689160419     1.9073265659     1.7048643367
C     -0.6879639934     -1.5585627048     2.1691723444
C     -1.572306116     -0.4063393363     2.3926671265
C     -0.8966097807     -2.8817731333     0.1430510992
C     -1.4130333887     -2.4971078091     1.4183211765
C     -1.7265890394     -1.6850363618     -1.859200216
C     -1.9642385871     -2.6245994812     -0.8040265383
C     -2.6899285216     0.5743646955     -2.0232207936
C     -2.851852858     -0.8263441559     -1.9637583613
C     -3.2140745516     2.1297715411     -0.2274553644
C     -3.1532705672     1.5696937079     1.1714873462
C     -3.6504045305     1.1333622646     -1.0677106879
C     -2.9033487133     -0.7456062479     1.8491294457
C     -2.7930502089     -2.0315653076     1.2496228093
C     -3.1588192159     -2.2383686075     -0.1037667169
C     -3.7696104528     -1.1691810491     -0.8431809612
C     -3.6657511049     0.2651526071     1.1643183875
C     -4.1145920467     0.0050769606     -0.217274554


