50

 C     2.8251360933     2.3334778031     0.0145119985
C     3.3458420136     1.1169668685     0.3837615996
C     3.3397952524     0.2336963593     -0.8044609942
C     2.2596041467     2.1656696168     -1.3688229208
C     2.5148402111     0.8535527674     -1.8245237258
C     0.9710319703     2.7389185869     -1.4026841604
C     1.8221651884     2.9052757108     0.803751399
C     0.7463640331     3.3104483027     -0.0951607216
C     1.2479104239     2.2060084928     1.9057717195
C     2.8349240225     0.3655264305     1.4920884794
C     1.7120763262     0.8719195784     2.2460678057
C     3.1605509582     -1.0667027318     -0.3919350161
C     2.8928691388     -1.0311745101     1.0886634769
C     2.3812323703     -1.9146506072     -1.229419919
C     1.4581580882     0.0861659966     -2.45353481
C     1.5190022908     -1.3272276553     -2.2555883015
C     -0.1132634091     2.0654375166     -2.0862920533
C     0.1461316467     0.734990717     -2.6749445212
C     -1.4247568067     2.3716110942     -1.5845906372
C     -0.4774372038     3.1648190834     0.5732850623
C     -0.1876117639     2.4943860627     1.8643426907
C     -1.5902112869     2.8003479639     -0.1820587079
C     -1.1068647191     1.6140467155     2.3766050259
C     0.7162034362     -0.1047646127     2.7338783833
C     -0.6529963621     0.3193669804     2.8927111305
C     2.0295698356     -1.9603604958     1.6302619315
C     0.9134767891     -1.4988108562     2.4557533375
C     1.7044454111     -2.9988977608     -0.6304147514
C     1.5623146972     -3.0626122945     0.800194495
C     0.3111513077     -2.1451779391     -2.2561951938
C     0.4238464314     -3.1792232192     -1.2534186298
C     -0.9826996286     -0.1374835091     -2.828170794
C     -0.9044199015     -1.5429226187     -2.4778266196
C     -2.5064066405     1.4947313193     -1.8353389849
C     -2.2953334518     0.2809414478     -2.4620105418
C     -2.6573158961     2.0260633263     0.4303291564
C     -2.4121198012     1.432921858     1.7086376005
C     -3.2584433454     1.2479256254     -0.5848289466
C     -1.7161726686     -0.5842378533     2.6438572817
C     -2.7698883427     0.0870696639     1.8887221486
C     -0.2067604101     -2.3611474495     2.1116479448
C     0.1986337054     -3.2518402561     1.0656203063
C     -0.5399871834     -3.2402421801     -0.2095791704
C     -1.5118579829     -1.8618330325     2.0987230704
C     -2.0483189755     -1.8499286791     -1.582068316
C     -2.9286853154     -0.7760507537     -1.6472068253
C     -3.4508200555     -0.1600936207     -0.4533701015
C     -3.1596907572     -0.7644731321     0.8057520005
C     -1.7911361942     -2.5420684821     -0.312964368
C     -2.3440776862     -1.9603616388     0.8724736875


