50

 C     3.8129117272     -0.1542448529     -0.019840196
C     3.3978664894     -0.4821997868     1.2534132289
C     2.7400450129     -1.8028318036     1.2409756926
C     3.3822904621     -1.2718695646     -0.9011148182
C     2.6838602491     -2.2641677727     -0.1144732861
C     2.7899792188     -0.7294816622     -2.0284073579
C     3.3567507118     1.0909722577     -0.6209463187
C     2.7569807905     0.722399668     -1.8874692865
C     2.7012935139     2.0372632158     0.1663389424
C     2.6068816764     0.4240749194     2.0542194587
C     2.4088585396     1.7430719675     1.5681580055
C     1.573913244     -1.692342223     2.0087486669
C     1.4908763314     -0.3144516298     2.5714371577
C     0.3808326139     -2.3780606265     1.6061911391
C     1.4569029583     -2.7627516594     -0.6069155101
C     0.3542757317     -2.9614035393     0.2873638375
C     1.4945212103     -1.1560810711     -2.4922720239
C     0.873833987     -2.2252621768     -1.8452978958
C     1.5037989712     1.1921592222     -2.3088964623
C     0.7074452148     0.0374893109     -2.7540173783
C     1.5229034049     2.7545040719     -0.3897923672
C     0.883142691     2.2911195499     -1.6111382373
C     1.1759624717     2.3779180602     1.868922057
C     0.6982478562     3.0985454068     0.6889179804
C     0.2123436157     0.3003069096     2.7585539567
C     0.0719846381     1.7047226865     2.4127592851
C     -0.8641414104     -1.8875627215     2.1352525002
C     -0.9560805213     -0.4953509107     2.644093817
C     -2.082221255     -2.2116019759     1.5410299011
C     -0.8897210739     -2.913116132     -0.4833578057
C     -0.5711967279     -2.2617741391     -1.7350285004
C     -2.0993198078     -2.6459668954     0.1534101101
C     -0.7001216261     0.0324321808     -2.6715211954
C     -1.3958428615     -1.2103567915     -2.2536358739
C     -0.5243976786     2.377404825     -1.7066868679
C     -1.3051994508     1.3092884095     -2.3427215731
C     -0.7201791492     3.0418336684     0.6480952003
C     -1.1547196174     2.1846713373     1.743399455
C     -1.3376825864     2.8800089203     -0.6017889704
C     -2.2182794124     0.0404989981     2.227604365
C     -2.9513418716     -1.0533301046     1.6429866129
C     -2.3122850898     1.3705803041     1.6369919345
C     -3.0626412548     -1.8507244278     -0.5357056133
C     -2.7240940435     -1.1092356888     -1.6890797135
C     -3.6556410158     -0.89260705     0.4397438721
C     -2.6156595507     1.3646448749     -1.8216291303
C     -2.6081846611     2.259260443     -0.6525073602
C     -3.1392309533     1.5279108175     0.4309779853
C     -3.3282955248     0.2103951593     -1.5019671406
C     -3.8222261879     0.3533000214     -0.1533722794


