50

 C     -4.0308322664     0.2654718304     0.5086719578
C     -3.8159015691     -0.8439355578     -0.4303471977
C     -3.3350741095     -0.2890670627     -1.6208009849
C     -3.5317762751     1.4861487994     -0.0878045122
C     -3.1431464918     1.1676314512     -1.3902336198
C     -2.5049012241     2.0507884167     0.7815396425
C     -3.2360127287     0.0102866197     1.6251086396
C     -2.335689147     1.1290530778     1.8851780476
C     -3.0275833148     -1.8652172016     0.2187660222
C     -2.6844513727     -1.332521879     1.5551925827
C     -2.0027138706     -2.4954629692     -0.4971059839
C     -2.1476242806     -0.7710988411     -2.2433829941
C     -1.556554989     -1.9531670048     -1.775133542
C     -1.8700298835     1.5423715831     -1.902982932
C     -1.2621209748     0.370896709     -2.5046017054
C     -1.3674048802     2.7063165861     0.2380768258
C     -1.0505640887     2.4781084671     -1.1934606108
C     -0.2423882347     2.8177547797     1.124121862
C     -1.0456558768     0.8910952209     2.4393869436
C     -0.0393709677     1.8430468571     2.1587425855
C     -1.4346731534     -1.5778216418     2.0995344316
C     -0.6021062343     -0.4871241294     2.6214516503
C     -0.7997119226     -2.963364265     0.1844414712
C     -0.5386408416     -2.5350958242     1.4877928858
C     -0.1223208694     -2.1494260441     -1.8764575813
C     0.3023202877     -2.9697356604     -0.7628637999
C     0.1469792996     0.2192157666     -2.5860163561
C     0.750819344     -1.1227170448     -2.3727072379
C     0.3112496067     2.5044302169     -1.5990899263
C     0.910245918     1.3836490949     -2.2775467981
C     1.0553733009     3.1550620923     0.6299537036
C     1.3254710886     3.0183376122     -0.713279521
C     1.4013867109     1.5011129162     2.199231018
C     2.0822267327     2.3762474976     1.3529159433
C     0.7645995161     -0.85479728     2.5266274244
C     0.8180552586     -2.1757174773     1.8681818066
C     1.821158395     0.1128712921     2.3182724563
C     1.6228981136     -2.9213151998     -0.3213143834
C     1.8933742034     -2.5249369962     1.0802049394
C     2.1355461861     -1.2220304265     -2.0241508527
C     2.5761596551     -2.2226807009     -1.1139663172
C     2.3184377491     1.2823235135     -1.8517001562
C     2.5844748227     2.2753884186     -0.8899181019
C     3.0614409249     1.8832426236     0.4144615421
C     2.9206427644     0.0071950811     -1.7221993174
C     2.9869755172     -0.2876284586     1.599752225
C     3.0564203316     -1.6560905939     1.0679684178
C     3.5608210763     -1.6133019705     -0.2297659463
C     3.578159016     0.592233542     0.5929889116
C     3.7420127478     -0.2360278362     -0.5917305575


