50

 C     4.339804765     -0.0000042374     -0.4258137286
C     3.7145612212     0.000016306     -1.638650032
C     2.8629359247     -1.1822491918     -1.8122235557
C     3.8398870042     -1.2028392773     0.2852562971
C     2.8938980661     -1.9282145217     -0.5899561749
C     3.3378995609     -0.7497017076     1.4886772616
C     3.8398923293     1.2028109511     0.2852936581
C     3.3379034201     0.7496385599     1.488701244
C     2.8629417595     1.1822914355     -1.8121871161
C     2.8939079953     1.9282188808     -0.5898958138
C     1.6366350048     -0.7433242667     -2.3564760507
C     1.6366390388     0.7433893837     -2.3564527157
C     0.4430096182     -1.4191966351     -2.0448854128
C     1.6551410527     -2.4139348943     -0.0820259214
C     0.5051276374     -2.4212614594     -0.9944761341
C     2.0806265947     -1.1696631451     2.0084733584
C     1.3232326924     -2.1748742449     1.3401423592
C     2.0806324047     1.1695894402     2.0085100494
C     1.3703774572     -0.0000428226     2.5014195832
C     1.6551535956     2.4139294613     -0.0819501544
C     1.3232436893     2.1748260517     1.3402108343
C     0.4430164866     1.4192582169     -2.0448410725
C     0.5051394097     2.4212902273     -0.9944007358
C     -0.826565039     -0.719745195     -2.3370999602
C     -0.8265615815     0.7198217331     -2.3370777746
C     -2.0554170136     -1.4246944506     -2.0118327268
C     -0.7517034116     -2.8840141554     -0.4911175344
C     -1.9893244252     -2.5010118626     -1.1198145545
C     -0.0398767415     -2.2817822975     1.7421422995
C     -0.9866075207     -2.9068728373     0.8993132297
C     -0.0505730705     -0.0000415476     2.6468335022
C     -0.7523576036     -1.2112023998     2.3938025248
C     -0.0398657788     2.281728256     1.7422141735
C     -0.752351913     1.2111305514     2.3938410605
C     -0.7516896521     2.8840343159     -0.4910278202
C     -0.9865939416     2.9068512678     0.8994053459
C     -2.0554104183     1.4247670393     -2.0117884667
C     -1.989312685     2.5010581894     -1.1197372772
C     -3.2695643699     -0.6826066943     -1.6830339533
C     -3.2695615284     0.6826754282     -1.6830131592
C     -3.0095356327     -2.2732288928     -0.0591738763
C     -2.3285093248     -2.3802502645     1.1685610323
C     -2.1693316879     -1.230342242     1.9825168483
C     -3.7569571408     -1.1498421052     -0.3661697578
C     -2.1693261759     1.2302905592     1.9825557492
C     -2.3284985122     2.3802267446     1.1686366779
C     -3.0095252122     2.2732462052     -0.0591026682
C     -3.7569521761     1.1498722427     -0.3661338345
C     -2.8818802713     -0.0000192201     1.680308174
C     -3.7777539001     0.0000011216     0.5135477193


