50

 C     3.9555479445     -0.9922651439     -0.1314382725
C     3.979428947     0.1479941592     -0.8696589082
C     3.5833307307     1.2918091727     -0.0186755675
C     3.4984475436     -0.6631158551     1.2303741396
C     3.294625352     0.7756093102     1.3076719667
C     2.4295258111     -1.5141911873     1.5234464709
C     3.0033587873     -1.9405579779     -0.7297689426
C     2.1467650295     -2.3453201211     0.3032747973
C     3.0134931214     0.0122162649     -1.9671281212
C     2.3942435372     -1.3098877272     -1.874808428
C     2.5545623892     1.946988009     -0.6976265227
C     2.1855262485     1.1268917476     -1.9092166481
C     1.5007813153     2.61257338     0.0108577003
C     2.1407090448     1.2412792587     1.9683320789
C     1.3514757143     2.3300289567     1.3980277655
C     1.30118851     -1.0541561007     2.3059639807
C     1.2076021275     0.3406535021     2.5864496192
C     0.1014684255     -1.7987236491     2.1898780512
C     0.8248904934     -2.7657655368     0.015756273
C     -0.0701129343     -2.7698733525     1.1389960432
C     0.9984975544     -1.4694465906     -2.1083272133
C     0.2828752126     -2.483244229     -1.3155400026
C     0.8129917502     1.0357096409     -2.3260556304
C     0.2381014481     -0.3015718458     -2.5726303096
C     0.3125783702     2.9129300809     -0.7460087223
C     -0.0415966081     2.0842633648     -1.9390504849
C     -0.8722581953     3.2233111262     -0.0959336535
C     0.026264707     2.2865521431     1.9786367578
C     -0.1104650734     0.9952257921     2.6178837673
C     -1.0696397698     2.8353225949     1.3005950955
C     -1.211771321     -1.1857724321     2.4339582412
C     -1.3264621813     0.2639469706     2.5426086583
C     -1.4733571776     -2.9068033685     0.9259740853
C     -2.1917313136     -1.9232136823     1.7601969752
C     -1.131108873     -2.5765358381     -1.4852024849
C     -1.9920860043     -2.8697542708     -0.3447168363
C     -1.1785544861     -0.3923533135     -2.6373305323
C     -1.8144950317     -1.5801807355     -2.2100125384
C     -1.4795826262     1.974720226     -1.9852195087
C     -2.0073876042     2.7318727521     -0.8767323588
C     -2.0570906015     0.7369743892     -2.2907359607
C     -2.3327390486     2.183934725     1.3625817877
C     -2.468612507     0.8866291628     1.8968305157
C     -2.9028637731     2.1433791425     -0.00057232
C     -3.1985246904     -1.2955393096     0.9432005715
C     -3.1592516196     -1.9558409477     -0.3515605498
C     -3.0634589306     -1.1996233257     -1.503179288
C     -3.1720325568     0.2249437493     -1.4965672816
C     -3.3448565588     0.0969814394     0.9897910556
C     -3.4682416292     0.8509944795     -0.2475903108


