50

 C     -3.475220959     1.0478610895     0.8770089233
C     -3.4725778717     -0.2781841827     1.2048154683
C     -3.6555141895     -1.0774043318     -0.0417101082
C     -3.5262410968     1.1115813644     -0.6231574045
C     -3.3440909555     -0.2266531081     -1.1454991584
C     -2.7481729988     2.141487185     -1.0239956579
C     -2.4412546023     1.9245831386     1.3257332598
C     -2.2357892579     2.828481126     0.2062610088
C     -1.2907532974     1.3895008794     2.0185764206
C     -2.3900112712     -0.8673270729     1.9561846211
C     -1.248323123     -0.067999478     2.3031077159
C     -2.9816795939     -2.2674242112     0.1469144542
C     -2.2314543083     -2.207182901     1.4411870099
C     -2.1311322735     -2.7454028796     -0.8449574592
C     -2.1715665872     -0.5167375754     -1.9776817204
C     -1.6462011884     -1.8447037842     -1.8646544918
C     -1.6034549422     1.9229502971     -1.9066697612
C     -1.2095531653     0.5848148847     -2.2828555947
C     -1.0003891221     3.3006957282     -0.082776577
C     -0.6200873697     2.8401989183     -1.4642261932
C     -0.0125188982     2.0961507336     1.8372107033
C     0.1082238978     3.0650683578     0.7628557461
C     1.2020155521     1.4472747798     2.2196877995
C     0.0586129088     -0.7617064637     2.3580764221
C     1.2380140455     0.0063426591     2.4693321044
C     -0.9821688324     -2.7695314603     1.2296241394
C     -0.9663068803     -3.2781282906     -0.1618966522
C     0.1977232281     -2.1202801088     1.7629657738
C     -0.2182134788     -2.0841430093     -1.9909485741
C     0.1455528969     -3.0522781635     -0.933006796
C     0.2386559376     0.3193373548     -2.408785184
C     0.7126719735     -1.0843116785     -2.3263576615
C     0.7312877601     2.5703388656     -1.4655830038
C     1.2508099835     2.9557799849     -0.1167228013
C     1.2096414419     1.3605561622     -2.0690009969
C     2.4532333181     1.8283528731     1.6517776739
C     2.4402425872     2.4614002145     0.3529684453
C     2.5438377292     -0.4784229126     2.0269417338
C     3.2917000135     0.6626660445     1.5373691684
C     1.4240069989     -2.4735214122     1.1552071216
C     1.3889099717     -2.9431020057     -0.2638653822
C     2.6191783866     -1.6907444113     1.3160448664
C     2.1061851751     -1.3611899294     -1.9747936473
C     2.4166842766     -2.3491371866     -0.9416717701
C     3.3324262376     -1.7212448018     0.0400458174
C     2.5726470075     1.0265274212     -1.7036556968
C     3.2041177074     1.6391016869     -0.5468046338
C     3.8705166677     0.6259923126     0.2359295347
C     3.0110872796     -0.313636396     -1.758170924
C     3.8346912809     -0.5766473067     -0.5163780814


