50

 C     4.0251975333     0.1247408161     -0.3102109758
C     3.6262065189     -1.0702648653     0.4592442524
C     3.0582677931     -1.957882652     -0.4349224728
C     3.3689686751     0.0472213388     -1.6265712407
C     2.8505876387     -1.229671461     -1.7329842695
C     2.4713827087     1.1648574147     -1.7815008814
C     3.5271981108     1.2309867114     0.3293457488
C     2.7056122344     2.0097512519     -0.6158417829
C     2.8457122286     -0.6477725296     1.6121494213
C     2.9022549955     0.8090551001     1.6072990801
C     1.6287071587     -1.3147887569     1.9530000608
C     1.8651534203     -2.6443700357     -0.1337645635
C     1.2265761678     -2.4809976353     1.1466706577
C     1.5185843436     -1.4712227199     -2.1507971726
C     1.0249528974     -2.5630387871     -1.3310484153
C     1.1215911135     0.9775644068     -2.2490664234
C     0.6339432271     -0.3961979024     -2.4896241422
C     0.1246366956     2.0083340974     -1.899980774
C     1.6857957589     2.7832210628     -0.0988074225
C     0.4175230376     2.9067397716     -0.8096871482
C     1.84608398     1.5570162195     2.0762481563
C     1.4014983693     2.7093188118     1.3119083087
C     0.5299314228     -0.4920958853     2.539885129
C     0.6558850331     0.9038002957     2.5801171613
C     -0.8418236487     -0.9980881797     2.5371572494
C     -0.1374565846     -2.9221343149     1.20328496
C     -1.1178147251     -2.2707338864     2.0701116102
C     -0.3283890442     -2.8235058841     -1.2328911884
C     -0.8362505006     -3.2611706467     0.0278136444
C     -0.8129344647     -0.6790886723     -2.4387066821
C     -1.2844608098     -1.9267252239     -1.8432600306
C     -1.2563642231     1.7567388438     -2.1562117128
C     -1.7246810499     0.3999623173     -2.4281520776
C     -2.2752064407     2.3541826973     -1.3333121715
C     -0.5999894676     3.1591155858     0.1793877532
C     0.0083765653     2.8526896079     1.4694625763
C     -0.4991356039     1.768617736     2.226095846
C     -1.9128786839     2.7963634372     -0.0368666242
C     -2.0173005494     -0.1192491328     2.2689939187
C     -1.8161414988     1.2554140871     1.9891027607
C     -2.6140022254     1.8943801123     0.9475766588
C     -2.4129523005     -2.2179823485     1.3853805216
C     -2.2100678981     -2.7562033391     0.1232747745
C     -2.516054435     -1.9988558376     -1.0639997192
C     -2.9622552531     -0.8926413077     1.5082356048
C     -3.0486888279     0.2556066899     -1.8249524047
C     -3.3862188969     1.4504746758     -1.1983957907
C     -3.5397237667     1.131484143     0.219071433
C     -3.3204253866     -0.8646483062     -0.9328371753
C     -3.5994113426     -0.3083069215     0.3835759739


