50

 C     0.0043676685     3.5848577866     -0.0260276423
C     -1.2734233906     3.3591949564     0.4726444826
C     -1.1508194772     2.8324010882     1.8385813562
C     0.9648082069     3.1291465204     0.9956722902
C     0.2414254331     2.7282341157     2.1677205688
C     1.8955523274     2.2800032346     0.3865177668
C     0.4103139369     3.0781468048     -1.3014155164
C     1.6681914826     2.3415848178     -1.0697855
C     -0.5515200913     2.5428622389     -2.1605523424
C     -2.1796861199     2.5274138277     -0.2625566091
C     -1.8857329018     2.2556970109     -1.6119111834
C     -1.9887494597     1.6968524859     1.937582323
C     -2.5927343328     1.4393537004     0.6207968957
C     -1.5708965745     0.6165007688     2.7411237461
C     0.6905063152     1.5836892153     2.8508359556
C     -0.2795775049     0.6729202822     3.3299899076
C     2.3192602957     1.0294788578     1.0238168805
C     1.793917446     0.7657953267     2.3108695292
C     2.7180212561     -0.1052203303     0.1450473383
C     2.0125662937     1.2851632493     -1.8687908292
C     2.6348350629     0.0812211116     -1.2900153143
C     -0.1803208617     1.428237576     -3.0441087575
C     1.121721921     0.8727777194     -2.9688383925
C     -2.2706489328     0.9905995283     -2.1215743323
C     -1.2745529309     0.5255282673     -3.0956226212
C     -2.7180212561     0.1052203303     0.1450473383
C     -2.6348350629     -0.0812211116     -1.2900153143
C     -1.793917446     -0.7657953267     2.3108695292
C     -2.3192602957     -1.0294788578     1.0238168805
C     0.2795775049     -0.6729202822     3.3299899076
C     1.5708965745     -0.6165007688     2.7411237461
C     -0.6905063152     -1.5836892153     2.8508359556
C     2.5927343328     -1.4393537004     0.6207968957
C     1.9887494597     -1.6968524859     1.937582323
C     2.1796861199     -2.5274138277     -0.2625566091
C     2.2706489328     -0.9905995283     -2.1215743323
C     1.2745529309     -0.5255282673     -3.0956226212
C     1.8857329018     -2.2556970109     -1.6119111834
C     -1.121721921     -0.8727777194     -2.9688383925
C     -2.0125662937     -1.2851632493     -1.8687908292
C     0.1803208617     -1.428237576     -3.0441087575
C     0.5515200913     -2.5428622389     -2.1605523424
C     -1.8955523274     -2.2800032346     0.3865177668
C     -1.6681914826     -2.3415848178     -1.0697855
C     -0.4103139369     -3.0781468048     -1.3014155164
C     -0.2414254331     -2.7282341157     2.1677205688
C     1.1508194772     -2.8324010882     1.8385813562
C     1.2734233906     -3.3591949564     0.4726444826
C     -0.9648082069     -3.1291465204     0.9956722902
C     -0.0043676685     -3.5848577866     -0.0260276423


