50

 C     3.8757461032     -1.0879521181     -0.9233771963
C     3.7681064321     -1.7132019135     0.3622698677
C     3.4657141738     -0.6483209852     1.2993836009
C     3.7184783993     0.3082601203     -0.7590277772
C     3.4948212651     0.6250224172     0.6408077804
C     2.7634559634     0.820489377     -1.741465052
C     2.7120997576     -1.47523737     -1.7036336059
C     2.0527449923     -0.3363281648     -2.2992036277
C     2.5619446721     -2.4684905009     0.3470992116
C     1.9459801537     -2.4294828085     -0.9687720445
C     2.3007010641     -0.9831588458     2.0909718694
C     1.7173812349     -2.1879921884     1.5019713784
C     1.4551771457     0.0358133516     2.5067719527
C     2.5592875827     1.6650041018     0.9986331481
C     1.6336473618     1.4066953946     2.0542890405
C     2.0495680896     1.9390555216     -1.444499404
C     2.0757350498     2.5201947568     -0.0784884079
C     0.6965333236     2.1167531944     -1.9813949107
C     0.6496890584     -0.319435219     -2.4403869516
C     -0.0680640039     0.9912082422     -2.4049292037
C     0.5471538565     -2.433178945     -1.079380061
C     -0.0827620743     -1.526116295     -2.0478894603
C     0.337337352     -2.3329710977     1.3958243825
C     -0.2336590574     -2.7944886964     0.1107764661
C     0.0370444938     -0.2154897688     2.6322754599
C     -0.5291410813     -1.4251653022     2.1887709113
C     0.3242403367     2.0355538172     2.0937180657
C     -0.6703688325     1.0615245108     2.4704571879
C     0.8964929435     3.2374103975     0.0601865816
C     0.0952096131     3.127289829     -1.1803169021
C     -0.0154264887     3.053434229     1.1670604957
C     -1.240817994     3.0750382691     -0.837821422
C     -1.3414001771     3.0648227408     0.640733048
C     -1.5144309609     1.0146921619     -2.1679329321
C     -2.0790851685     2.0543245324     -1.3426929397
C     -1.4874574707     -1.5184871466     -2.0703140745
C     -2.239161976     -0.2294515089     -2.1551552675
C     -1.6182594761     -2.8389487831     -0.0250790305
C     -2.2241847075     -2.4274710808     -1.2667552299
C     -1.9399124068     -1.4476332144     1.9472374413
C     -2.513495215     -2.3907136174     1.0799311183
C     -1.9988148446     1.0990519828     1.9685507155
C     -2.3164350936     2.1211757485     0.9951978523
C     -2.9958837642     1.6897885003     -0.2482498854
C     -2.7019806091     -0.1605794207     1.8529725859
C     -3.4354935844     -0.3750427533     -1.4283971875
C     -3.4347047666     -1.726049639     -0.8991914717
C     -3.6433437407     -1.7381811976     0.4730802171
C     -3.6907825139     0.5119623117     -0.2935140638
C     -3.7192214106     -0.3449949272     0.9088947306


