50

 C     4.476458206     -0.4700861981     -0.2270483945
C     3.907925895     -1.6851215928     0.0647063057
C     3.1307890884     -1.5564951053     1.2942681275
C     4.1434137753     0.4679995993     0.8448429912
C     3.1763811691     -0.1781665038     1.7483164348
C     3.7703671282     1.6678225875     0.2170644098
C     3.7986608695     0.0357382271     -1.4437920972
C     3.476068782     1.358226899     -1.2549772748
C     2.9154891419     -2.0129676547     -0.9565920368
C     2.7397810994     -0.9195606246     -1.8486309122
C     1.8919948438     -2.1928966564     1.1316696244
C     1.7800099303     -2.5462460485     -0.3095246664
C     0.7184081897     -1.6863195136     1.7682085703
C     1.9319811895     0.4762731579     2.1160637005
C     0.665882674     -0.3154864753     2.2308752967
C     2.6839794309     2.3630427841     0.6787257433
C     1.7869891982     1.8458431407     1.6856960812
C     2.161836985     1.849019886     -1.5380818707
C     1.8240856916     2.7268208126     -0.4729438728
C     1.3988002913     -0.4601312611     -2.1501287994
C     1.0936774577     0.9605396772     -2.0671108251
C     0.5365386825     -2.4433399362     -0.9148906609
C     0.2760677891     -1.3803634554     -1.8876949991
C     -0.4816396339     -2.299744744     1.3257948961
C     -0.525974144     -2.8104681147     -0.0347449807
C     -1.7869938741     -1.8458417817     1.6856933082
C     -0.6658885771     0.3154883329     2.2308731767
C     -1.9319869079     -0.4762713968     2.1160593206
C     0.4816360225     2.299745836     1.3257940515
C     0.5259740659     2.8104680828     -0.0347464362
C     -0.7184128473     1.6863208902     1.7682049924
C     -0.2760632504     1.3803614672     -1.8876969199
C     -0.536536545     2.4433388411     -0.9148944026
C     -1.0936722831     -0.9605418608     -2.0671126798
C     -1.3987949935     0.4601291879     -2.1501328901
C     -1.8240848184     -2.7268211264     -0.4729457916
C     -2.6839815894     -2.3630425046     0.6787214388
C     -2.1618332576     -1.8490214953     -1.5380854121
C     -3.7703678997     -1.6678222366     0.2170566846
C     -3.47606577     -1.3582278723     -1.2549844414
C     -3.1763858934     0.1781679348     1.748308375
C     -4.1434161769     -0.4679988487     0.8448334083
C     -1.8919980957     2.1928975142     1.1316627469
C     -1.7800094647     2.5462457599     -0.3095318577
C     -3.1307925328     1.5564964384     1.2942589238
C     -2.7397764519     0.9195588898     -1.8486388107
C     -3.7986574137     -0.0357395763     -1.4438016826
C     -4.4764574423     0.4700860796     -0.227060036
C     -2.9154867806     2.0129669992     -0.956601677
C     -3.9079259531     1.6851215585     0.0646948202


