50

 C     3.6864813035     -1.2981785502     -0.6645410953
C     3.8926982576     0.1308576907     -0.4037158164
C     3.6721081853     0.3289530034     0.9475701895
C     3.1798292822     -1.9602457118     0.5097323249
C     3.1775135804     -0.9675187665     1.5118678194
C     1.9423546385     -2.6289643332     0.1660316624
C     2.7563785431     -1.4343399051     -1.6955352137
C     1.7524338626     -2.3911106387     -1.2731702058
C     3.0865126878     0.8712960999     -1.3698156318
C     2.3447039939     -0.1235101673     -2.1672544531
C     2.4309355373     2.0177831947     -0.949420779
C     2.8059615145     1.3744311179     1.406846459
C     2.383618447     2.3613959148     0.4786747599
C     2.011868238     -0.6872773783     2.2326777351
C     1.8191232914     0.7857764137     2.2788754252
C     0.8006780694     -2.524037214     0.9968432639
C     0.8725351861     -1.5525600868     2.1203360734
C     -0.5348790592     -2.7650236294     0.3985005989
C     0.4923174102     -2.2368537317     -1.7840911274
C     -0.6679177335     -2.6256467895     -1.0189490345
C     0.9983699041     0.0921890849     -2.5750449046
C     0.129781596     -1.0603626549     -2.5729357952
C     1.1212090994     2.3658802387     -1.5312594415
C     0.3852310572     1.4185698201     -2.3473659787
C     1.1278891381     2.9782871527     0.693588605
C     0.4313622055     3.1284540628     -0.5741885895
C     0.5128569205     1.3396962414     2.4058142623
C     0.1770505577     2.5095717167     1.627618081
C     -0.3387775239     -1.027761705     2.630793778
C     -0.5494179184     0.444861799     2.7165444816
C     -1.7138894506     -2.4588481881     1.1670746552
C     -1.5704597838     -1.6258462865     2.3592539537
C     -2.9287317903     -2.1001957208     0.5318244298
C     -1.824961582     -2.0092920098     -1.6325532809
C     -1.2874285069     -0.9522618777     -2.5093650245
C     -2.9696757775     -1.7813042288     -0.8594608068
C     -1.0304194204     1.5142984122     -2.3277253117
C     -1.8776095819     0.3348742807     -2.5089294456
C     -0.9659285631     2.9989138138     -0.3581306167
C     -1.164691093     2.6131280144     1.0286057688
C     -1.7214263148     2.3708770229     -1.3548150317
C     -1.9089004981     0.7047779834     2.3740612585
C     -2.5575178708     -0.5880908481     2.2900795336
C     -3.4465962132     -0.9025056528     1.245247223
C     -2.2296255612     1.7420413149     1.4012717158
C     -3.6466901535     -0.4860434475     -0.9932897329
C     -3.083543716     0.5194079093     -1.7777458669
C     -2.9305837808     1.7446318267     -0.9705465431
C     -3.82269925     0.0711759635     0.3277295604
C     -3.2194323646     1.4256514291     0.3723861093


