50

 C     4.357085492     -0.8482859292     -0.0228042725
C     4.2282904924     0.3661070403     0.5904037534
C     3.6955670272     1.3740321009     -0.3171951912
C     3.7566074606     -0.6710592365     -1.3841329534
C     3.2542677668     0.6941053138     -1.5157213442
C     2.8309874447     -1.6777778274     -1.5222388214
C     3.5018836498     -1.7778282363     0.7157932997
C     2.7291704421     -2.4377899398     -0.2252856284
C     3.3191740233     0.2992151488     1.7519483398
C     2.7825368941     -1.0204433309     1.7929176291
C     2.7917504898     2.1575495738     0.4196454755
C     2.4466172276     1.403294157     1.6713165814
C     1.7356134814     2.7258169293     -0.2733573664
C     1.8979954203     0.9412547332     -1.995534235
C     1.2746218905     2.1185209988     -1.5083176761
C     1.4865173745     -1.4820999574     -1.9872367454
C     0.9712093712     -0.1996568314     -2.2852743251
C     1.375358115     -2.7108405183     -0.0090057983
C     0.6374411958     -2.3807799243     -1.2140201103
C     1.3759520888     -1.2004099361     1.9759000223
C     0.743788193     -2.2877281134     1.2197300855
C     1.0676635874     1.2737703724     2.0495145612
C     0.5051192391     -0.0420809039     2.2689538134
C     0.5683673863     3.0760183353     0.4499662839
C     0.1756699072     2.3073532975     1.5641758942
C     -0.1756857409     2.3072880771     -1.5642695612
C     -0.5683877221     3.0759915026     -0.4500889774
C     -0.5051186202     -0.0421773464     -2.2689517121
C     -1.0676729551     1.2736791208     -2.0495661128
C     -0.7437713528     -2.2877840495     -1.2196363202
C     -1.3759437715     -1.2005015835     -1.9758510664
C     -0.63742434     -2.380734546     1.2141177694
C     -1.3753388618     -2.710850364     0.0091168692
C     -0.9712083552     -0.1995711115     2.285283953
C     -1.4865064252     -1.4820293566     1.9872973772
C     -1.2746374252     2.1185728643     1.5082326561
C     -1.7356333506     2.7258146373     0.2732475767
C     -1.8980009977     0.9413212113     1.9954959957
C     -2.446626451     1.4032084395     -1.6713732357
C     -2.7917646905     2.1575114171     -0.4197348372
C     -2.7825295679     -1.0205381811     -1.7928770664
C     -3.3191762127     0.2991173703     -1.7519597928
C     -2.7291534638     -2.4378015197     0.2253845816
C     -2.8309760654     -1.6777374304     1.522307452
C     -3.5018747174     -1.7778881107     -0.7157218119
C     -3.2542722887     0.6941421741     1.5156904356
C     -3.695575281     1.3740152385     0.3171385594
C     -4.2282923125     0.366048979     -0.5904202709
C     -3.7566036911     -0.6710327794     1.3841591481
C     -4.3570810013     -0.8483209691     0.0228371192


