50

 C     -2.7697059194     -2.1890899184     0.0687275043
C     -3.3659493105     -0.9843923824     0.4387439466
C     -3.336280601     -0.1012712222     -0.7254975913
C     -2.3469914634     -2.0589604352     -1.3383055138
C     -2.6489904908     -0.7438348314     -1.8110033721
C     -1.0793913912     -2.6406043216     -1.4938742702
C     -1.6836073334     -2.7270461054     0.8067460585
C     -0.6641715718     -3.1541300628     -0.1698099794
C     -1.2771034713     -2.0734708891     1.9955796661
C     -2.8998482336     -0.24287413     1.5676920705
C     -1.8900246131     -0.8084790872     2.3734167543
C     -3.0399080349     1.2131385525     -0.30407401
C     -2.7997225182     1.166611694     1.1593891358
C     -2.2369134648     2.0124677309     -1.125641785
C     -1.652488727     -0.0016661777     -2.5450229048
C     -1.5889478992     1.4209759335     -2.3031363518
C     -0.1297159684     -1.9885443623     -2.3135940682
C     -0.4199819404     -0.6760044802     -2.862327654
C     1.2771052948     -2.0734746723     -1.9955747999
C     0.664174153     -3.1541289323     0.1698173473
C     1.6836094836     -2.72704663     -0.806739633
C     0.1297176809     -1.9885385988     2.3135984031
C     1.0793934818     -2.6405996868     1.4938802522
C     -0.8413068413     0.0408049621     2.9049490407
C     0.4199826585     -0.6759974242     2.8623288476
C     -1.8462814155     1.9884971416     1.718124918
C     -0.8728541705     1.4256457787     2.6695489345
C     -1.3353300497     2.9875489414     -0.5269577496
C     -1.1338242602     2.9719667871     0.8773182416
C     -0.3549266197     2.0964474264     -2.4446989324
C     -0.189845984     3.0662457546     -1.3688174661
C     0.8413072668     0.0407987584     -2.9049493178
C     1.8900254718     -0.8084833107     -2.373414783
C     0.8728536623     1.4256402197     -2.6695522724
C     2.8998483298     -0.2428757859     -1.5676911563
C     2.7697070793     -2.1890875561     -0.0687223704
C     2.346992504     -2.0589550353     1.3383099114
C     3.3659493269     -0.9843908834     -0.4387414625
C     1.6524887268     -0.0016591382     2.5450224917
C     2.648990513     -0.7438285616     1.8110046523
C     3.3362796432     -0.101267294     0.7254976923
C     0.3549254966     2.0964529332     2.4446936407
C     0.1898442945     3.0662486546     1.3688102117
C     1.5889468428     1.4209819454     2.3031325245
C     1.1338226041     2.9719652543     -0.8773249717
C     1.8462804122     1.9884942332     -1.7181293418
C     2.7997216219     1.1666105706     -1.1593914843
C     3.0399067289     1.2131409133     0.3040712863
C     1.3353282099     2.9875505312     0.5269508139
C     2.2369118059     2.0124711989     1.125636896


