50

 C     3.11110734     -2.1259292179     0.0370661566
C     2.0159444849     -2.9474354437     0.2844478277
C     1.3793998943     -2.4425370298     1.4953700435
C     3.2043402464     -1.0955925921     1.0525488541
C     2.1477659151     -1.288329206     1.9819126061
C     3.4185154392     0.1697253307     0.4186728135
C     2.965159382     -1.4569929808     -1.2261600358
C     3.2614551541     -0.0615861338     -1.055025015
C     1.2080411782     -2.9009129961     -0.9340068602
C     1.7591385335     -1.8996671604     -1.8538618823
C     -0.1460760167     -3.0158653058     -0.8348528453
C     -0.030051446     -2.4846577423     1.6414966345
C     -0.7920898246     -3.0386171397     0.5158048575
C     -0.670526742     -1.4489109455     2.4016362998
C     1.4780680113     -0.1452016171     2.5341439541
C     0.0806433494     -0.2701044587     2.8207030543
C     2.8642466447     1.3007545908     0.9954038737
C     1.9715179305     1.1611735798     2.1471953363
C     2.3562182285     2.3927093332     0.1465793218
C     2.5444968613     0.8423033988     -1.806172306
C     2.1928992522     2.1643560782     -1.2430260991
C     0.8951317662     -0.9569051432     -2.510072711
C     1.4112252655     0.383475282     -2.6246941828
C     -1.0273263815     -2.2989639783     -1.7296014761
C     -0.5682875185     -1.1498462463     -2.460961139
C     -2.1168326177     -2.7115686949     0.3384464079
C     -2.3066236386     -2.320493735     -1.0925160322
C     -2.0403734073     -1.0613678026     2.1500883851
C     -2.7882399075     -1.7180533875     1.141358859
C     -0.81221977     0.8576548893     2.7249058607
C     -2.1115512589     0.3904063057     2.2849194623
C     1.0654244634     2.2477299676     2.0775765064
C     1.2925442784     3.0070546563     0.8509262696
C     -0.3226427389     2.1066622014     2.2924218915
C     0.0307155778     3.3049646379     0.2605410579
C     -1.0018092832     2.8108265881     1.1895354424
C     0.9938320394     2.5744526095     -1.8566637258
C     0.5101486739     1.4642728167     -2.6781526286
C     -0.1170315366     3.0899664892     -1.1302813493
C     -1.4799419348     0.0160283413     -2.4990212262
C     -0.8885534625     1.3264046283     -2.5394091209
C     -1.3026502734     2.3877426095     -1.6163808146
C     -3.1633330961     -1.2590637641     -1.1531798473
C     -3.5818407572     -0.9241604566     0.2408120403
C     -2.7657387884     -0.0575292588     -1.8430612089
C     -2.8321862212     1.1521861633     1.347098891
C     -2.1940726563     2.3128112027     0.7103083133
C     -2.3725747164     2.1563650242     -0.7517295776
C     -3.5696232263     0.4547414116     0.3279998787
C     -3.15578269     1.0055263012     -0.9710918156


