50

 C     3.945270706     -0.4076278699     -0.0108561221
C     3.2676636621     -1.6667093618     0.3257188383
C     2.7566784039     -1.5457176167     1.6258901324
C     3.5561022227     0.5612429375     0.9934930978
C     2.9145472189     -0.1172328378     2.0278100996
C     2.832925223     1.6546564517     0.3556642433
C     3.3760439563     0.0250508987     -1.2052384525
C     2.7837422449     1.3518604976     -1.0574045629
C     2.4057379628     -2.0812800588     -0.749405286
C     2.5619984813     -1.0385429643     -1.7805010079
C     1.1051020881     -2.6006420566     -0.4887775136
C     1.4388755877     -1.9209597054     1.9025662087
C     0.6554427312     -2.6283458585     0.9221059122
C     1.6821417411     0.3305096898     2.5604383415
C     0.8070301318     -0.8149765859     2.6417379424
C     1.7191728872     2.2808679077     0.999764531
C     1.1332734035     1.6150711612     2.1904073917
C     0.8195516461     2.9773064172     0.1149117762
C     1.6582825508     1.7114943119     -1.8517145037
C     0.7397437258     2.6371471652     -1.2860053321
C     1.5137391658     -0.6980658539     -2.5937232148
C     1.1274225217     0.7108907653     -2.7665111806
C     0.0593315568     -2.4564136233     -1.5328260551
C     0.2994725387     -1.5028912489     -2.5888163347
C     -1.3055688324     -2.6595438637     -1.1774146497
C     -0.7297920748     -2.7284942442     1.1922950577
C     -1.6607615902     -3.017061849     0.1774867906
C     -0.5980309068     -0.6883883885     2.7092012558
C     -1.3834459584     -1.7718074238     2.1601234979
C     -0.2605943148     1.7683796297     2.4447392684
C     -1.1316784609     0.632690846     2.6991042448
C     -0.5109943145     3.2975261528     0.5410663308
C     -1.0262249947     2.6996145808     1.6737324448
C     -0.6994485237     2.6084427283     -1.6435637656
C     -1.4517521051     3.02491239     -0.5488525277
C     -0.2369555375     0.6927658596     -3.0883019005
C     -0.7414038027     -0.6692063131     -3.0689466697
C     -1.1940948828     1.5464403895     -2.4595257488
C     -2.3542893837     -1.7323103556     -1.6371736027
C     -2.0088141507     -0.6552162993     -2.4452578466
C     -2.3055273767     0.7427592964     -2.0253829844
C     -2.8919546607     -2.3504126257     0.525114097
C     -2.6858867886     -1.5502659385     1.7090374444
C     -3.2171061995     -1.4770461731     -0.5125188714
C     -2.4248394333     0.879003329     2.0365862415
C     -2.3407119013     2.114844479     1.3635397079
C     -2.531756827     2.2012209903     -0.0412956668
C     -2.9625431768     1.0146185929     -0.7715291166
C     -3.113393005     -0.1866575178     1.4299297141
C     -3.3917231554     -0.113500834     0.0090823057


