50

 C     3.7434032111     -1.403969271     -0.6735373495
C     4.0169826124     -0.0761712818     -0.6380670382
C     3.6999410438     0.4652959506     0.6909410362
C     3.1451645949     -1.7520577459     0.6389706338
C     3.1164787009     -0.5859785282     1.5008124416
C     1.9489490869     -2.4150748241     0.382493094
C     2.698201257     -1.6022355143     -1.690294786
C     1.6679665828     -2.3254559646     -1.090225441
C     3.2018168963     0.6480510032     -1.6391955687
C     2.3577832775     -0.3181494749     -2.2878394283
C     2.9943512074     1.6538405413     0.4788029928
C     2.6110262127     1.7366464206     -0.9766099601
C     2.0382258646     2.0303922637     1.4342383972
C     1.9296239136     -0.313120959     2.2761716973
C     1.5358179632     1.0583106434     2.3984395116
C     0.853558785     -2.3601075538     1.2936167793
C     0.8522768428     -1.3277098648     2.3322812632
C     -0.3783033737     -2.8558875377     0.7637541963
C     0.3240356594     -2.1868056061     -1.5459766426
C     -0.6652992452     -2.6991183239     -0.6825741557
C     0.9939041828     -0.0005788059     -2.5683123652
C     0.0009974939     -1.073412006     -2.4573948181
C     1.2971377319     2.177710856     -1.3407813176
C     0.5378567393     1.3703843528     -2.3109428545
C     0.9716690693     2.8594225101     1.0162895827
C     0.564441436     2.9151181158     -0.3508184329
C     0.1526296332     1.4256540793     2.6592496222
C     -0.1883348112     2.5484849195     1.8055688991
C     -0.4363391424     -0.9440577419     2.8296534136
C     -0.8130405209     0.4734337253     2.8810087683
C     -1.5828025511     -2.5984169263     1.433440799
C     -1.60873878     -1.649310504     2.4679463651
C     -2.0585899058     -2.3517901063     -0.8257693746
C     -2.6472037626     -2.2951262756     0.4679498081
C     -1.3652724714     -0.7552067532     -2.6323987604
C     -2.4239667106     -1.3949634959     -1.8076722906
C     -0.8509412506     1.6374743309     -2.4461470904
C     -1.7486038553     0.600113183     -2.8103954551
C     -0.8877975341     2.907384717     -0.3441662917
C     -1.356282349     2.5891330219     1.0329822974
C     -1.5726140052     2.4182813332     -1.4231520715
C     -2.1488902914     0.6155984297     2.2784862468
C     -2.6575468471     -0.6850646682     2.1142124197
C     -3.300701441     -1.0986766173     0.8919734696
C     -2.4050283047     1.6257619851     1.2558344526
C     -3.3971465203     -0.4122948326     -1.4813595431
C     -3.0491879285     0.7987098748     -2.1625625068
C     -2.8638041152     1.7828009455     -1.198819338
C     -3.6331184366     -0.1100954814     -0.0728130274
C     -3.2146888447     1.2528334618     0.1327097206


