50

 C     3.8293134437     0.5385310903     -1.221711754
C     3.7909991872     -0.8030726356     -0.6489691755
C     3.7696984922     -0.6701077721     0.770297928
C     3.5112746133     1.4514929306     -0.133448013
C     3.5150983607     0.7704551378     1.0801694431
C     2.338123599     2.2307978935     -0.4560454962
C     2.7296248884     0.6366791584     -2.0824652155
C     1.8700986494     1.7494121741     -1.7260647003
C     2.7234134978     -1.5407506347     -1.24328128
C     2.0642150419     -0.6345411889     -2.2065948115
C     1.8882789892     -2.4178280483     -0.436062255
C     2.9079180159     -1.4156991994     1.5641026097
C     1.9860458704     -2.3423272363     1.0150788857
C     2.3941119237     0.8460300431     1.9950478809
C     2.1298688473     -0.4895401371     2.4121362604
C     1.3599139158     2.5509014589     0.5464883176
C     1.2957913224     1.746867055     1.7799701049
C     0.1678584624     3.0670440304     0.0062281437
C     0.4821330035     1.7483369516     -2.0595092786
C     -0.269823121     2.706692161     -1.3420130041
C     0.6781648574     -0.6971796513     -2.4731669319
C     -0.1681486781     0.5072586976     -2.5101464955
C     0.6189857289     -2.7145227597     -0.9519297056
C     0.0640361121     -1.9492408308     -2.0970012886
C     -0.4978382322     -3.1007782588     -0.113971098
C     0.7459534586     -2.2143979436     1.7701173641
C     0.8343541172     -0.9826575492     2.5563259364
C     -0.491667026     -2.6525674699     1.2711379598
C     -0.0316968479     1.3507385856     2.2649493483
C     -0.2782220983     -0.0756923007     2.612206166
C     -1.0228512009     3.0800084704     0.7885920801
C     -1.1626805052     2.1135378111     1.8502003577
C     -1.7022489609     2.6626208368     -1.3138068618
C     -2.1889608698     3.1131552801     -0.0393612121
C     -1.6129248501     0.3803082606     -2.3179523183
C     -2.3563182722     1.451526558     -1.6974647585
C     -1.3057488265     -2.0801035056     -2.0741680426
C     -1.6750911511     -2.9001985496     -0.8780453547
C     -2.1720512967     -0.950115596     -2.1357593968
C     -2.8326058135     -2.3822947479     -0.3428141307
C     -3.1965739374     -1.1883866693     -1.156840519
C     -1.6788666626     -1.9875891487     1.7834560912
C     -1.5475380758     -0.652308335     2.3913226215
C     -2.8714554421     -1.9711753604     1.0184406804
C     -2.4734947387     1.5132546614     1.6483932273
C     -3.0518297295     2.0907838877     0.4371704801
C     -3.3241879367     1.1698195735     -0.624238094
C     -3.6419150953     -0.1706420279     -0.2903036743
C     -2.6760941064     0.1500245967     1.9412310347
C     -3.4644429238     -0.6425627475     1.0700729447


