50

 C     -4.0892794145     0.642139904     0.2023425971
C     -4.0386208597     -0.5781065917     -0.4235690992
C     -3.3130832883     -0.4751173258     -1.6737339345
C     -3.3458010637     1.6056055398     -0.6125730227
C     -2.8188143187     0.8842427746     -1.7779564768
C     -2.3783082265     2.1543142406     0.2271944576
C     -3.4220719969     0.4939823596     1.4933234029
C     -2.4306456643     1.4654034965     1.571847653
C     -3.404908089     -1.595982176     0.4327700115
C     -3.0408528393     -0.9275511775     1.6618129657
C     -2.3897146055     -1.5456847485     -1.6809704276
C     -2.4061428665     -2.2171159898     -0.3370972485
C     -1.161286389     -1.3599809856     -2.2982121158
C     -1.4836499314     1.1151377392     -2.2275261057
C     -0.7507920561     -0.0321885083     -2.6904780241
C     -1.115652569     2.6161604206     -0.2688223443
C     -0.6820400399     2.1815808995     -1.5950675769
C     -0.1316571018     2.8829997691     0.7299857134
C     -1.188718436     1.2290434359     2.2728204437
C     -0.1081010668     2.0580791118     1.9713621073
C     -1.7920607364     -1.2089652511     2.1917658615
C     -0.8918614459     -0.1381396542     2.6678069115
C     -1.1501095344     -2.6198784418     0.2461170666
C     -0.9401537621     -2.203081968     1.5920634102
C     0.0143156106     -2.1025729275     -1.8825898108
C     0.0403199464     -2.7696991911     -0.6106658303
C     0.6908051593     -0.0477850717     -2.7593058937
C     1.1649079916     -1.3785194596     -2.3469640781
C     0.7184315277     2.2467153606     -1.8855772763
C     1.4173256676     1.0831476     -2.4457284545
C     1.2002454758     3.1041207679     0.3666783829
C     1.613816603     2.8091127346     -0.9403965761
C     1.2629647627     1.6442093433     2.1793097685
C     2.086987072     2.3696530564     1.2892786809
C     0.435115752     -0.6159291952     2.6974508959
C     0.4045865173     -1.9640668788     2.0815423019
C     1.5720055696     0.2507743132     2.4872139793
C     1.3243827866     -2.8955132156     0.0114992017
C     1.4917783559     -2.4559896925     1.4202132573
C     2.4126847782     -1.554029733     -1.7476070586
C     2.4996560039     -2.4585487575     -0.6499940991
C     2.7253725532     0.9460637634     -1.778576463
C     2.8375961056     1.9958488152     -0.8523329774
C     3.1092470081     1.7202857511     0.5437316648
C     3.2202976453     -0.3449684888     -1.4187431262
C     2.7569146339     -0.309576222     1.9284469032
C     2.7552356019     -1.7311211714     1.5338289169
C     3.4076958031     -1.8509658437     0.3237163217
C     3.5158152559     0.414075195     0.9164852346
C     3.7958251147     -0.5316157248     -0.1361190914


