50

 C     -3.6029124725     -1.2531880419     -0.6659889152
C     -3.7633135558     -0.1073309     0.08429242
C     -3.3190912344     1.0499753831     -0.7211251773
C     -2.8842821103     -0.9310449153     -1.882335645
C     -2.7408637968     0.5126082023     -1.9480174912
C     -1.7468812679     -1.7451961705     -1.9353485073
C     -2.8291138475     -2.2335352245     0.0954404132
C     -1.7306408172     -2.6000132192     -0.6879298132
C     -3.191962898     -0.355733716     1.4216474965
C     -2.6081843843     -1.7035560021     1.4162216699
C     -2.5131301687     0.6832972398     2.0430672023
C     -2.6762707868     2.0943260711     -0.0622052672
C     -2.3975928491     1.9481573531     1.3558227418
C     -1.5157974381     2.7575877989     -0.6582001307
C     -1.5387779979     1.0431889447     -2.4285255002
C     -0.9665934096     2.2443776105     -1.8341373479
C     -0.506355429     -1.2246898711     -2.4526509283
C     -0.432576275     0.177852204     -2.7755084235
C     0.6967933767     -1.8613911603     -2.0609997567
C     -0.4835193295     -2.9190485644     -0.0698030839
C     0.694932388     -2.8069471236     -0.8918206019
C     -1.3573899158     -1.9054323586     2.0143558708
C     -0.3343032534     -2.6518832414     1.331094883
C     -1.2201431812     0.4537817535     2.7082269579
C     -0.6685317252     -0.8157269145     2.7077217812
C     -1.128257613     2.4958449355     1.6324824547
C     -0.5925997681     3.0854648159     0.4349449656
C     -0.3533626833     1.5933370867     2.4438729144
C     0.7685628318     3.0390123078     0.2599935168
C     0.4755492581     2.1950835103     -2.0242622419
C     0.8098155617     0.8977648535     -2.589071437
C     1.3353847041     2.739337739     -1.0643220393
C     1.9600620997     -1.2109899538     -2.1075738148
C     2.0435474664     0.2291103595     -2.2775930179
C     1.9527279008     -2.7851475707     -0.3253212138
C     2.787401505     -1.8686132495     -1.1096911828
C     0.9707703963     -2.2374819336     1.8485522659
C     0.7700869289     -0.9949347136     2.5639414972
C     2.1174719153     -2.4231066493     1.0768245361
C     1.0440465854     1.4519233817     2.2340647462
C     1.6245091683     2.36091789     1.2496398995
C     1.6611883558     0.116066232     2.3995125349
C     2.6178604794     2.1795982889     -0.8733093507
C     3.01092799     0.9529418803     -1.4618009481
C     2.8102235733     2.0247971352     0.5808830521
C     3.610447002     -1.1569114354     -0.2593378403
C     3.1373067052     -1.4254280494     1.1298542363
C     2.9199068377     -0.1687786224     1.7357398264
C     3.7815412291     0.2294323185     -0.4324207561
C     3.5013829496     0.8303263057     0.8311015494


