50

 C     3.6973884568     -0.255544441     -0.259125577
C     3.2697024188     -1.5110284374     0.0993223268
C     2.7337406932     -1.4590740235     1.4802381961
C     3.4575574338     0.6298548236     0.9132845228
C     2.7094320285     -0.102989056     1.9179786652
C     2.9779725867     1.8181428033     0.4348061328
C     3.1470009665     0.3967633567     -1.437565696
C     2.8306867751     1.7310414753     -1.0538552092
C     2.2021750549     -0.3070817449     -2.2241400032
C     2.3399409757     -2.2599289515     -0.704683522
C     1.8570744919     -1.6866023068     -1.8955653663
C     1.6165655358     -2.2990472961     1.5557365205
C     1.4023556454     -2.9034660275     0.2242662293
C     0.4980028721     -1.8591375835     2.2946559592
C     1.4824836083     0.4489669206     2.4465683436
C     0.4375326966     -0.4939953431     2.7493082986
C     1.8148142529     2.438821117     0.9690008005
C     1.0736754812     1.8084506515     2.0288591809
C     1.6355719082     2.3528394423     -1.3958766011
C     1.1214161291     3.0246536616     -0.1737395643
C     0.9876630712     0.3470710111     -2.6547508722
C     0.6827546289     1.6862960179     -2.2729223605
C     0.4724869433     -1.8959662082     -2.2678693793
C     -0.0774396481     -0.6621014935     -2.7366787811
C     0.1240065454     -3.213871738     -0.1720938898
C     -0.3406373836     -2.7914010569     -1.5177805127
C     -0.8351155903     -2.3111493751     1.9304164889
C     -1.0036244127     -3.068589387     0.7516735424
C     -0.9711153253     -0.1179073848     2.7368966614
C     -1.7658962871     -1.2401610927     2.2484546851
C     -0.3206801151     2.1701493785     2.0972518625
C     -1.3468963749     1.1848345688     2.4480191918
C     -0.2028355085     3.3647912016     -0.0838237434
C     -0.8848643896     3.0629446975     1.1492168011
C     -0.7047021633     2.053288854     -2.1270255844
C     -1.1017466995     3.027712463     -1.18550824
C     -1.4601881631     -0.3306396166     -2.5117565555
C     -1.7724422482     1.0361430473     -2.2291311535
C     -1.7135291063     -2.5691902861     -1.4484922594
C     -2.158897029     -2.8182751911     -0.0600725466
C     -2.3092132938     -1.3462678765     -1.9160153342
C     -2.8803292546     -0.9969896612     1.419344425
C     -3.067815571     -1.8363614505     0.2706524892
C     -3.252314392     -0.9613547873     -0.9084723854
C     -2.5183607329     1.4313769187     1.6018329591
C     -2.2025680265     2.5872966793     0.7947657441
C     -2.3424198295     2.5852332892     -0.6007888339
C     -2.7785320154     1.3818534802     -1.2590360718
C     -3.1853209711     0.3680336725     1.0109005815
C     -3.3745186692     0.3615582854     -0.4766815659


