50

 C     -4.3238414249     -0.0067645494     -0.0000099441
C     -3.9260260311     1.2899709499     0.0001608409
C     -3.0909031821     1.574492275     1.1788423424
C     -3.7003882096     -0.6468167687     1.1867166562
C     -2.8509198582     0.3365648178     1.889979763
C     -3.1434975907     -1.8327353873     0.7566338126
C     -3.7003626754     -0.6464986437     -1.1868870299
C     -3.1435037325     -1.8325642832     -0.7571199997
C     -3.0909087596     1.5748162217     -1.1784493277
C     -2.8509193884     0.3370466417     -1.8899063937
C     -2.0027463522     2.3243535901     0.7557600139
C     -2.0027520912     2.3245406389     -0.7551660308
C     -0.7548181405     2.2103792703     1.4113117528
C     -1.5196466098     0.0014796553     2.2798334187
C     -0.466114004     1.0415724781     2.2241316972
C     -1.8464958258     -2.2134852034     1.1557931803
C     -1.0758939945     -1.3907542738     2.0693407456
C     -1.8465021429     -2.2131927321     -1.1563512973
C     -1.1507084253     -2.7556498588     -0.000337362
C     -1.5196458771     0.0020579175     -2.2798276732
C     -1.0758920556     -1.3902223392     -2.0696791287
C     -0.7548118149     2.2107380047     -1.41075738
C     -0.4661065823     1.042147042     -2.2238712059
C     0.3007118453     2.9063812285     0.7457864598
C     0.3007054495     2.9065779802     -0.7450657716
C     1.6243487676     2.798336397     1.1585032855
C     0.9450171154     0.6998652461     2.3946251085
C     1.9777977709     1.586622648     1.8908562065
C     0.2879560303     -1.697562062     2.11992357
C     1.3042614804     -0.6981113584     2.4689592505
C     0.2286606938     -2.9694153346     -0.0003674724
C     0.9132569684     -2.68438281     1.2403936476
C     0.2879612701     -1.6970188007     -2.120331902
C     0.913256849     -2.6840724975     -1.2410623961
C     0.9450192579     0.7004822625     -2.3944519869
C     1.3042644871     -0.6974820536     -2.4691312027
C     1.6243517731     2.7986170336     -1.1578017816
C     2.48332769     2.9223917153     0.0003663556
C     1.9778012659     1.5871086578     -1.8904661109
C     3.1650014529     1.0563621494     1.2513717714
C     3.3080938673     1.7947323395     0.0002252447
C     3.1650207299     1.0566809817     -1.2511144343
C     2.5420828541     -1.1759042609     2.0046359972
C     2.289697528     -2.3829714609     1.2214164775
C     3.4149323484     -0.3303588956     1.229585686
C     2.2896918941     -2.3826538743     -1.2219959632
C     2.5420795186     -1.1753832164     -2.0049216006
C     3.4149388516     -0.3300348733     -1.2296765944
C     2.9963207253     -2.2482718466     -0.0002799227
C     3.7568472836     -1.0020117582     -0.000122372


