50

 C     3.2670228838     1.6713102808     0.3118416605
C     3.6068915954     0.406020223     0.6297043567
C     3.6068901057     -0.4060343683     -0.6297033932
C     2.967494373     1.7166027586     -1.1577996643
C     2.8906033483     0.3741252384     -1.6426341818
C     1.9210293779     2.580063776     -1.3052854296
C     2.185221987     2.3425165146     1.0053639988
C     1.5471741303     3.1368978282     0.0205480434
C     1.3549347794     1.5710991207     1.9340793255
C     2.8906015432     -0.3741365392     1.6426349359
C     1.6635682015     0.1297142897     2.1847265641
C     3.2670165251     -1.6713230668     -0.3118408317
C     2.9674874862     -1.71661434     1.1578004677
C     2.185213162     -2.3425250647     -1.0053633913
C     1.6635682076     -0.1297207388     -2.184726108
C     1.3549290107     -1.5711043231     -1.9340789909
C     0.7141596097     2.1880931846     -1.9564670434
C     0.5346936934     0.8274712042     -2.374856237
C     0.1739858091     3.383369627     0.0187794437
C     -0.3596575314     2.9119380858     -1.2813162482
C     0.0179939711     2.0130969324     2.0586698376
C     -0.5390987379     3.0340725679     1.1854634151
C     -1.0906416565     1.0899615769     2.3891672036
C     0.5346899675     -0.8274732185     2.374856402
C     -0.8573444763     -0.3419877883     2.425846917
C     1.9210191258     -2.58007116     1.305285938
C     1.5471620255     -3.1369037376     -0.0205476349
C     0.7141507655     -2.1880959095     1.9564672939
C     0.1739727067     -3.3833701521     -0.0187793245
C     -0.3596690114     -2.911936713     1.2813162084
C     0.0179866606     -2.0130970081     -2.0586698842
C     -0.5391102123     -3.0340706376     -1.1854634908
C     -0.8573425709     0.3419910915     -2.4258470454
C     -1.0906453108     -1.0899573818     -2.3891674195
C     -1.6605829376     2.4604954209     -1.3582474253
C     -1.9309717514     1.1722576603     -1.978905514
C     -1.9336213784     2.7771409764     1.0602003807
C     -2.2924336957     1.6214697019     1.8950678797
C     -2.50426557     2.5744415258     -0.1885334715
C     -3.0931736238     0.5953660183     -1.2762286312
C     -3.2259370205     0.8075121549     1.1754927682
C     -3.3569634592     1.3865119525     -0.1319926212
C     -1.9309767099     -1.1722502466     1.9789051911
C     -1.6605927221     -2.4604890767     1.3582471222
C     -3.0931762349     -0.5953541425     1.2762280684
C     -1.9336318     -2.7771334994     -1.0602007616
C     -2.2924394805     -1.6214608414     -1.8950682886
C     -3.2259398363     -0.807499767     -1.1754933828
C     -2.5042755398     -2.5744319395     0.1885330277
C     -3.356968784     -1.3864990508     0.131991965


