50

 C     -3.9348587514     0.065263914     -0.0002753516
C     -3.4065944326     -0.7873003039     1.0193789453
C     -2.7050851259     -1.8917833309     0.437962047
C     -3.4001246869     -0.4044110089     -1.2396668455
C     -2.7707443359     -1.6816583748     -1.0160789542
C     -2.6623509395     0.6331507905     -1.894802147
C     -3.3701811343     1.3616278228     0.2208603964
C     -2.7121562387     1.7891021639     -0.9874260135
C     -2.7416040424     0.0286988997     2.0028457304
C     -2.6498248162     1.3918923095     1.4565184415
C     -1.6467912321     -0.5010285013     2.6747070299
C     -1.4850743941     -2.3984023957     1.0452324768
C     -1.0092604785     -1.7567820122     2.223681288
C     -0.4841955611     -2.9602565458     0.1635016618
C     -1.6723063592     -2.0250069767     -1.7947157673
C     -0.6697907405     -2.8712009806     -1.2550671829
C     -1.4384411797     0.3297331403     -2.6190540481
C     -0.9964781299     -1.0230833638     -2.6470379076
C     -0.4113994658     1.3488993859     -2.6508131088
C     -1.5942282313     2.6082361847     -0.8801784809
C     -0.5790638621     2.538670974     -1.8683207857
C     -1.4081979379     2.1400477021     1.5740728605
C     -0.9322275272     2.8291299134     0.4229025111
C     -0.6153397483     0.3640523876     3.1224292393
C     -0.4067473224     1.6324522753     2.4870252678
C     0.4066013789     -1.6257558786     2.4914264899
C     0.615155776     -0.3556541598     3.1234339977
C     0.9322005945     -2.8279778816     0.4305573195
C     1.4081051933     -2.1358024173     1.5798985412
C     0.5791744264     -2.5436808332     -1.8614565134
C     0.411556512     -1.3560218124     -2.6471570488
C     1.5942793811     -2.6105933309     -0.8730763597
C     0.9966332513     1.0159642187     -2.6497228927
C     1.4385957249     -0.336775693     -2.6180812933
C     0.6698626264     2.8678189805     -1.2627404442
C     0.4841863234     2.9606853191     0.1555714677
C     1.67241145     2.0201687779     -1.8000545845
C     1.0091315052     1.7627530775     2.2190085507
C     1.6466332785     0.5082203513     2.6734443282
C     1.4850169242     2.4012017502     1.0388649617
C     2.649741395     -1.3879732235     1.4604073983
C     2.7414905909     -0.0233115804     2.0030781353
C     2.7122150965     -1.7917521333     -0.9824651883
C     2.6624611063     -0.638246436     -1.8929472546
C     3.3701652078     -1.3610281347     0.2247104588
C     2.770809231     1.6789222621     -1.0204425721
C     2.7050588479     1.8929506389     0.4330337279
C     3.4065306725     0.7900371333     1.017458016
C     3.4001933409     0.4010749245     -1.2405529815
C     3.934853839     -0.0652669883     0.0001244375


