50

 C     -3.5419548508     -0.0000061337     -1.6508218015
C     -3.5973665908     1.2022021122     -0.8380780538
C     -3.7333010675     0.7524332514     0.4801233685
C     -3.5973848543     -1.2022040821     -0.8381399244
C     -3.7333099885     -0.7524559589     0.4800997065
C     -2.4530725036     -2.0084958646     -1.2002292927
C     -2.3788308135     0.0000034266     -2.4186439592
C     -1.6857118739     -1.2557234785     -2.2296240334
C     -2.4530708679     2.0085146742     -1.2001286416
C     -1.6856833639     1.2557054691     -2.2294803035
C     -1.7120807104     2.5996536344     -0.1857320952
C     -2.8449676131     1.1843787619     1.5053479084
C     -1.9234242005     2.2126372665     1.2085706827
C     -2.8449564337     -1.1843873041     1.5052742251
C     -2.3547292764     -0.0000118014     2.2203532102
C     -1.7120670743     -2.5996473615     -0.1858534821
C     -1.923386175     -2.2126316475     1.2084477266
C     -0.2902289986     -2.8461471946     -0.3667099244
C     -0.2938767613     -1.2798604608     -2.2729784313
C     0.4140985558     -2.3171298206     -1.4822684333
C     -0.293846176     1.2798706174     -2.2728854565
C     0.4214208953     0.0000172063     -2.533849469
C     -0.2902446043     2.8461598435     -0.3665852062
C     0.4140922459     2.3171740352     -1.4821558267
C     -0.6310333158     2.2447398772     1.8452282282
C     0.3401489601     2.8399660422     0.9368468755
C     -1.0725082714     -0.0000091391     2.7621193042
C     -0.2184063743     1.1745558961     2.6602560766
C     -0.6309962392     -2.244752911     1.8450742202
C     0.340167068     -2.8399996245     0.9367244707
C     -0.2183756321     -1.1745488391     2.6601444259
C     1.6961577126     -2.5359213497     1.0441928833
C     1.833828808     -2.2388978139     -1.3836118518
C     2.4782301002     -2.4678720698     -0.1401319951
C     1.833028621     -0.0000392016     -2.5018649941
C     2.5574787271     -1.1817960257     -2.0716144221
C     1.8337943526     2.2389652665     -1.3834667548
C     2.557444726     1.1817567419     -2.071359511
C     1.6961440505     2.5359317809     1.0443503091
C     2.4781792131     2.4678493462     -0.1400053362
C     1.1652797991     0.735854828     2.6241179248
C     1.1652775455     -0.7358626523     2.6240686134
C     2.1329621343     -1.4361105691     1.9104003152
C     2.1329674208     1.4361155585     1.9105096732
C     3.5004261255     -1.4254840095     0.0172277747
C     3.5963622054     -0.7231144026     -1.2168187491
C     3.5964776365     0.7231657275     -1.2167776641
C     3.5004668028     1.4254699147     0.0173068533
C     3.2151784083     -0.7269348706     1.2164906672
C     3.2152045169     0.7269233084     1.2165371697


