50

 C     -3.7533940156     -0.7946250472     -0.2679889406
C     -3.743777027     0.2596851009     0.6393321095
C     -3.3543235587     1.5182101254     -0.0392556952
C     -3.325910683     -0.2231840783     -1.5408037642
C     -2.9219098858     1.1543481686     -1.3416958708
C     -2.4222263918     -1.1022586173     -2.1112886727
C     -2.9354171496     -1.978118584     -0.010833712
C     -2.2968835535     -2.278946363     -1.2403673213
C     -2.101629252     -2.0347812393     1.1966739464
C     -2.9683386742     0.1974472756     1.8236996881
C     -2.0924414855     -0.8946254648     2.0874373176
C     -2.4907266795     2.24713998     0.8426044711
C     -2.2610728832     1.4509384558     2.022965714
C     -1.4199987209     2.9305494597     0.3039164302
C     -1.6258728593     1.6026176931     -1.8267533351
C     -1.0759864178     2.705754341     -1.1028161907
C     -1.101094421     -0.7227438155     -2.4965268554
C     -0.6612243396     0.6363169349     -2.4074854782
C     -0.977576572     -2.7593027777     -1.329350701
C     -0.1989562883     -1.8251352728     -2.158468304
C     -0.8729711848     -2.7287414097     1.1122945593
C     -0.3829509551     -3.2559901954     -0.1622472007
C     0.3099360358     -2.3026421101     1.863164076
C     -0.8421227542     -0.3116468055     2.5425755044
C     -0.9461169241     1.1537677923     2.4221698472
C     0.3988928733     -0.9517810355     2.4069499318
C     -0.1448662634     2.9697500239     1.0187062572
C     0.1815936557     1.9262237235     1.9827355849
C     0.2840770747     3.0136121897     -1.24858262
C     0.834281159     3.3739162173     0.0821258489
C     0.7928543793     0.8622004846     -2.3371481654
C     1.2147101669     2.1774052982     -1.9052844468
C     1.1826174994     -1.6338330526     -1.9626701144
C     1.7273497992     -0.2680288703     -2.139256644
C     1.0222011304     -3.2746909897     -0.1170175422
C     1.4466585938     -2.865187062     1.2444821846
C     1.8267916868     -2.5771802399     -1.0326373017
C     2.6364252067     -2.1731435534     1.1704810783
C     2.9829411415     -2.1271956267     -0.2683538285
C     1.6420472456     -0.1503650856     2.2323322323
C     1.5190399154     1.316090985     1.9702229165
C     2.784653352     -0.8458220894     1.7100319527
C     2.1243356875     2.9182694715     0.1640965947
C     2.4529223702     2.3420874686     -1.1663581811
C     2.5329928907     1.9671558993     1.1597042657
C     3.009831313     0.0000584751     -1.5201864049
C     3.5415752947     -0.9207656944     -0.5305257189
C     3.6478380209     -0.1691859712     0.7624043448
C     3.3043591781     1.2971329003     -0.9900456396
C     3.5168652693     1.149239587     0.4928387932


