50

 C     -4.1631996172     -0.6738189212     0.4614233658
C     -3.6663027114     0.4322130942     1.2185017954
C     -3.4035877199     1.5017888265     0.3439632962
C     -3.9541790157     -0.3100453465     -0.9718849307
C     -3.5455359473     1.0470960207     -1.043057472
C     -3.1320386901     -1.2610264584     -1.5663855065
C     -3.3147673998     -1.7652827242     0.7314482632
C     -2.7922173148     -2.2723954934     -0.5084119159
C     -2.5415112451     -0.0051280094     2.0546495799
C     -2.3460414709     -1.4081680047     1.7713579598
C     -1.4208522583     0.8487866496     2.2872439301
C     -2.2384003605     2.3219001852     0.4612737181
C     -1.3023531226     2.1163142634     1.523042051
C     -2.3621130023     1.4437708799     -1.722581181
C     -1.7297345614     2.4691691795     -0.8900529822
C     -1.9088773476     -0.8976994906     -2.2065092548
C     -1.4794601805     0.4740684252     -2.3336892406
C     -1.4643042326     -2.6008704976     -0.6239619583
C     -0.9099666268     -1.8620083401     -1.7917338161
C     -1.0372717511     -1.9550838113     1.7444830802
C     -0.6088457267     -2.7025991553     0.5469605127
C     -0.1976277509     0.1962573771     2.6248736748
C     -0.0154902418     -1.2058691226     2.4012767363
C     1.1259865172     0.8248123115     2.4945903418
C     0.0092822495     2.663658782     1.322561339
C     1.2336982284     2.0455602737     1.8602175013
C     -0.4153845768     2.8044955795     -1.09461656
C     0.365678236     3.1323239916     0.0437195806
C     -0.0212354787     0.7396103367     -2.4075755043
C     0.4522166638     1.9987114069     -1.9622346648
C     0.4560205825     -1.6882769674     -1.9604785454
C     0.9582045892     -0.3776260678     -2.4109423136
C     0.7442714916     -2.8009766363     0.271519219
C     1.2869543235     -2.5081548243     -1.0867458195
C     1.3978504182     -1.4675689175     2.1866881634
C     2.1313621156     -0.2206417645     2.2968764777
C     1.7846772467     -2.4089677431     1.2089898985
C     3.2671479767     0.0092924587     1.4996871189
C     2.3384726898     2.2455211693     0.902487877
C     1.7707054177     2.8458496623     -0.2367242211
C     1.8245312365     2.1821789815     -1.5027966011
C     3.3328331845     1.2482781536     0.7205167943
C     2.3418167018     -0.1132354876     -2.2222897264
C     2.7681532609     1.1708223545     -1.688207378
C     3.7082317207     0.8935786682     -0.6197521907
C     2.6387580259     -2.2731979414     -0.9710912874
C     2.990653771     -2.2167781638     0.4728635692
C     3.7542317244     -1.0611008984     0.6406179469
C     3.2145319729     -1.1130017092     -1.5987890046
C     4.0750250056     -0.4865385348     -0.6713217162


