50

 C     -4.2284454894     -0.1649658977     -0.3574238225
C     -3.6507717662     -1.3779238027     0.1309274274
C     -3.1610714372     -1.1401611514     1.4312332369
C     -3.9282721751     0.8985177868     0.6349568558
C     -3.2951708543     0.3042241127     1.7438181203
C     -3.2619771216     1.9677659585     -0.0035609725
C     -3.4850068737     0.1732243072     -1.5122757791
C     -2.972986245     1.4929669316     -1.3832550398
C     -2.6643602491     -1.8829828031     -0.8261562056
C     -2.5155628279     -0.8621893946     -1.8367288491
C     -1.5333294748     -2.6164198433     -0.3885452507
C     -1.8822629934     -1.5851601234     1.8298380877
C     -1.1498919498     -2.5324047395     1.0341637715
C     -2.0192398119     0.7390614547     2.194841508
C     -1.1825744546     -0.4531547083     2.4020019187
C     -2.0461395931     2.4809707324     0.4967276462
C     -1.3719647109     1.8924415915     1.6417599925
C     -1.6599654355     1.840522024     -1.7461001836
C     -1.1934303544     2.713227059     -0.6739675938
C     -1.2082901184     -0.5206981876     -2.337298705
C     -0.7221512317     0.8854450647     -2.2952295364
C     -0.4519328774     -2.6531135109     -1.3225965558
C     -0.2388151551     -1.5282440785     -2.2139974686
C     0.833315309     -3.0974502519     -0.9317139604
C     0.2158465111     -2.6551048349     1.3727082391
C     1.1749031858     -3.1552960946     0.4092876972
C     0.2274837359     -0.3970946935     2.4456236297
C     0.9023576568     -1.6079586473     2.0925419123
C     0.0940695627     2.0081786764     1.7455801326
C     0.9085085505     0.9059514012     2.2744112294
C     0.1201245232     2.9364276809     -0.5212677411
C     0.7456476462     2.8701622289     0.7986340299
C     0.7004045035     1.1693348693     -2.2018560292
C     1.0846853826     2.3790976284     -1.4744058753
C     1.2093684681     -1.2593264657     -2.2867239872
C     1.8742958357     -2.2922405805     -1.6113777907
C     1.7085206779     0.0970715663     -2.2526371312
C     2.4763353127     -2.527107238     0.6033120268
C     2.2950594779     -1.5878444582     1.6419798238
C     2.9193484913     -2.0092711918     -0.6829965853
C     2.3198907694     0.8916049341     2.0258062789
C     2.980410937     -0.3510307546     1.6123189314
C     2.1298230477     2.8231417611     0.5623456891
C     2.3479923792     2.5439506958     -0.9046604032
C     2.9451110399     1.9314989073     1.2473398771
C     2.9978851242     0.2755399873     -1.6331509707
C     3.5355719443     -0.7558359954     -0.7554904588
C     3.8570663639     -0.0749262975     0.4990553184
C     3.3407129638     1.5532915809     -1.0094458081
C     3.8788738005     1.3142878038     0.2916483232


