50

 C     -4.0613424257     -0.7645260911     0.8198434363
C     -3.4970675539     0.4130164527     1.3995353114
C     -3.4313155517     1.4457723552     0.42932916
C     -3.997153857     -0.5280535022     -0.6311847982
C     -3.6540043047     0.8252563591     -0.8779998039
C     -3.1999906523     -1.5183732197     -1.2378063528
C     -3.1175171259     -1.8041710513     1.0648731481
C     -2.7483289229     -2.4236323676     -0.156172249
C     -2.2552382239     0.1055157207     2.1057382323
C     -2.0238999411     -1.3082319323     1.9210429663
C     -1.162991796     1.0273465485     2.1479057865
C     -2.3330726022     2.3253734637     0.3702770437
C     -1.2961525101     2.2842298346     1.3724699037
C     -2.5351922039     1.1912375021     -1.6836476904
C     -1.9085215466     2.329514335     -1.0170450388
C     -2.033363121     -1.1791551688     -1.9882092667
C     -1.6441001491     0.1964232572     -2.239416145
C     -1.4154554586     -2.7582993377     -0.3719382058
C     -0.9782776961     -2.0909619743     -1.5921144909
C     -0.716506152     -1.818728792     1.8037790337
C     -0.4618011343     -2.7573800102     0.7035319822
C     0.1691521882     0.4763030547     2.3635037602
C     0.3963787864     -0.9646136007     2.2396701436
C     1.3255679362     1.3444618599     2.1819447556
C     -0.1121207888     2.9914292398     1.0454283172
C     1.1568925353     2.5864907167     1.582432648
C     -0.62265599     2.7051454935     -1.3456634936
C     0.1689266919     3.2750848106     -0.3238472482
C     -0.1970248321     0.4941295104     -2.3982834505
C     0.2536889749     1.8108192193     -2.1042648364
C     0.3983591694     -1.8894724214     -1.8650690086
C     0.8219645549     -0.5756086062     -2.3417944955
C     0.8529843828     -2.9689003183     0.2969577252
C     1.2912483909     -2.681058812     -1.061137277
C     1.7268239325     -1.431169977     1.9998410756
C     1.943990579     -2.5763382711     1.1492359963
C     2.6509927246     0.8204361937     1.7708192513
C     2.8770241346     -0.54006546     1.780439874
C     2.2352299781     2.7371574064     0.5651065029
C     1.5901863604     3.0459446013     -0.6195039238
C     1.6356653581     2.1195079705     -1.7224309135
C     3.1376043737     1.646069612     0.6633765082
C     2.2085703509     -0.2286511851     -2.1400749397
C     2.5805325083     1.1062084917     -1.6866542575
C     3.5020393456     0.9671211925     -0.5383231811
C     2.6891464446     -2.3755719077     -0.9858098303
C     3.1298676025     -2.4221743754     0.3965833545
C     3.6904575648     -1.1333671264     0.7225401902
C     3.1019663342     -1.1381604587     -1.5045848036
C     3.867834337     -0.3933302342     -0.4632284062


