50

 C     -2.3644067263     2.8840798189     -0.0425239805
C     -2.4025518571     2.305464057     1.2183502843
C     -3.1211845928     1.0153078716     1.1537141392
C     -2.8477698386     1.811709917     -0.968279438
C     -3.4163311628     0.728549181     -0.231677461
C     -1.8559119206     1.6145846558     -1.9612914032
C     -1.1721067898     3.4126342782     -0.5525158017
C     -0.880773245     2.6499267415     -1.7473265689
C     0.0397455421     3.3881695504     0.2188594794
C     -1.1848883604     2.1174495174     1.9580965339
C     0.0443096722     2.7245124664     1.4977630608
C     -2.4056715596     0.0744857932     1.8886981742
C     -1.1976871236     0.7523824189     2.4143780534
C     -2.3812785758     -1.3238274204     1.4982206436
C     -3.2172155486     -0.5560387883     -0.7142274058
C     -2.9537854678     -1.6595795595     0.2193447941
C     -1.4354148857     0.2749974638     -2.312974119
C     -2.3210728762     -0.7617204971     -1.8535067738
C     -0.0003005569     -0.0001544664     -2.5096010216
C     0.5007006705     2.3906710203     -1.8537825276
C     1.1271012609     3.0643790825     -0.7148831948
C     0.9555499339     1.105191673     -2.3132008588
C     2.3391141269     2.5943356246     -0.2323271293
C     1.2676336038     2.0466524917     1.8884796508
C     2.4400282914     2.195575236     1.1531359136
C     0.0003206084     0.0002122564     2.6186676855
C     1.2507706809     0.6615693502     2.4142422009
C     -1.2409367227     -2.0847810297     1.958448135
C     -0.0522248124     -1.4133387082     2.4143484849
C     -0.7951085816     -3.2333816414     1.2185845824
C     -2.3693109854     -2.7212554132     -0.552093969
C     -1.8548320634     -2.0877932511     -1.7471871527
C     -1.3154721788     -3.4896159509     -0.0422675266
C     0.4790395607     -1.3806369245     -2.313209829
C     -0.4706739861     -2.414662466     -1.9612506857
C     -0.1453017625     -3.3722406807     -0.9682585459
C     1.8198464826     -1.6294137266     -1.8539988532
C     2.3258352036     0.7995503991     -1.9616602023
C     2.9926256781     1.5600988382     -0.9689156175
C     2.7351064533     -0.5626082068     -1.7478042577
C     3.1980589286     0.9281081716     1.2178862115
C     2.4264535155     -0.0322679485     1.9577788958
C     3.6797785309     0.6055091806     -0.0430641634
C     3.5413851611     -0.6914032309     -0.5529251333
C     1.1386884311     -2.1206269774     1.8885737053
C     0.6815059122     -3.2107570037     1.1537448336
C     1.0771214652     -3.3229384245     -0.2317975871
C     2.0900729147     -2.508391965     -0.7147723687
C     2.3371930655     -1.4002290549     1.4973938624
C     2.9142274865     -1.7284427197     0.2186122519


