50

 C     3.709291827     -1.3716394057     -0.6669352746
C     2.663954457     -2.2706678545     -1.1472639758
C     2.1244660138     -2.9289282883     -0.0573065981
C     3.5086510771     -1.2333271125     0.7972567148
C     2.5846764284     -2.1925702816     1.1763899501
C     3.2533099361     0.1354704863     1.1354431468
C     3.4403854574     -0.1279382857     -1.1880703778
C     3.4533952415     0.8665768701     -0.1283487268
C     1.7438699727     -1.5217866085     -2.0094101943
C     2.2327593065     -0.1760525059     -2.053497815
C     0.3420454931     -1.7712152479     -1.9810567645
C     0.7400966975     -3.1451972257     0.0414264342
C     -0.143165678     -2.7836513855     -1.0280393127
C     1.407680348     -1.861598848     1.9029842096
C     0.3441357414     -2.6952192725     1.3762431745
C     2.1023838812     0.5050408596     1.9365932838
C     1.0953331536     -0.5091088963     2.287105422
C     1.6541740709     1.8620907816     1.7941293126
C     2.8075293211     2.0390091031     -0.3641457122
C     2.1933700787     2.7036520068     0.7590348809
C     1.3684707568     0.9481290907     -2.132272155
C     1.8298884453     2.1573774109     -1.4749400979
C     -0.5586323937     -0.6635874978     -2.3353951057
C     -0.0730497313     0.7118671109     -2.3223673264
C     -1.9812242635     -0.9053164074     -2.1625413026
C     -1.5350719731     -2.8165487757     -0.6821923934
C     -2.452910997     -2.0284925267     -1.3844120767
C     -0.9720079912     -2.4191278182     1.6712632214
C     -1.9506386216     -2.7779032879     0.7109566025
C     -0.3408379229     -0.1447035748     2.430156949
C     -1.3420780329     -1.1408031765     2.2624955601
C     0.2613977032     2.2347779198     1.933312593
C     -0.7609709831     1.2626065156     2.2122480088
C     1.2098905002     3.6120510837     0.2918085677
C     0.9068860574     3.1374556     -1.0526110959
C     0.0270842291     3.3535968509     1.0202217205
C     -1.0034430324     1.7883446186     -1.9325611188
C     -0.5037057334     2.897067701     -1.1927401095
C     -1.0688166516     3.179452868     0.1268728002
C     -2.8634227124     0.1644611421     -1.8868462955
C     -2.380419589     1.4558685534     -1.6533436129
C     -3.5261838351     -1.5809970639     -0.4639891134
C     -3.0831813735     -1.9077169876     0.8494694608
C     -2.6984106972     -0.8581755388     1.7738013374
C     -3.789867217     -0.2536794928     -0.7671257006
C     -2.0686924733     1.5258703163     1.7038491957
C     -2.1828618822     2.4761304798     0.582865249
C     -2.9668797318     1.8518032206     -0.3820957037
C     -3.0468090855     0.4735116359     1.4646593771
C     -3.7118415922     0.7437371414     0.2089227873


