50

 C     -3.1926034627     -2.0229250251     0.8395893767
C     -3.5373090589     -0.6621850653     0.783072157
C     -3.5249805301     -0.2539066893     -0.5873229714
C     -2.732853821     -2.4083455873     -0.5123147234
C     -3.0207541766     -1.345388161     -1.4143947886
C     -1.4199107775     -2.8663752371     -0.4259380289
C     -2.0811336064     -2.140709783     1.7191980918
C     -1.0110047581     -2.7493089507     1.0235733068
C     -2.7149820985     0.0972788567     1.7152438019
C     -1.800515397     -0.8532319144     2.3266485386
C     -2.2845949434     1.41119089     1.3928975021
C     -2.9429379001     0.9702938752     -0.9865776965
C     -2.4746228029     1.9279896825     -0.0072527161
C     -2.0145035536     -0.7904758369     -2.2527732083
C     -2.1392249151     0.6710369113     -2.1678835303
C     -0.446948973     -2.4900149122     -1.4153757467
C     -0.7123870491     -1.3668140447     -2.3263809696
C     0.8878803488     -2.7860377537     -1.0618791004
C     0.3332598264     -2.5176017224     1.3838331427
C     1.2922425543     -2.9266495512     0.3909667788
C     -0.4619870851     -0.4916333526     2.6467947928
C     0.6473264127     -1.4186934932     2.3092293723
C     -1.1307576519     1.8588439922     2.1084258988
C     -0.2094104245     0.9042822574     2.6983709161
C     -0.3492908436     2.9608389153     1.6133917404
C     -1.5746545587     2.9256208278     -0.4969342188
C     -0.5640242558     3.5275941647     0.3637808381
C     -1.0750319825     1.4923526626     -2.472236897
C     -0.9333899162     2.7103751463     -1.757699942
C     0.4382786659     -0.4875668808     -2.6545018171
C     0.2505824403     0.9194624117     -2.6891467233
C     1.9806345238     -2.2176821896     -1.7427851246
C     1.7595013294     -0.9124378054     -2.3391249594
C     2.6277350111     -2.5446342827     0.4859127983
C     3.1012312931     -2.1633907853     -0.8595748096
C     1.9725083083     -0.9012985535     2.2436719118
C     2.9534535093     -1.4936984718     1.3960071102
C     1.1404608319     1.4198125941     2.4879262835
C     1.0584663711     2.6544690578     1.7924336368
C     2.1663586481     0.5523487394     2.1774262137
C     0.7216363261     3.4942528116     -0.3262483929
C     0.486540226     2.9556198536     -1.5842698684
C     1.2149385882     1.825022384     -2.0914604473
C     1.704128036     2.8420750919     0.5317089759
C     2.7130807764     -0.0128159099     -1.713131473
C     3.498916745     -0.8208374855     -0.7860081518
C     3.5128878529     -0.4229885768     0.5892063401
C     2.9848804317     0.8238593063     0.9990992783
C     2.3446477134     1.3150505829     -1.3769826394
C     2.5582397723     1.8079790057     0.029791141


