50

 C     4.3189523844     -0.3549627494     -1.1606572334
C     4.4202015604     -1.1906254231     -0.000176832
C     4.3189150698     -0.3553007963     1.1605293174
C     4.0593631106     0.971181248     -0.7265368263
C     4.0593635348     0.9709801737     0.7268190126
C     2.8778977373     1.4774005389     -1.4238401839
C     3.1111118164     -0.7461389126     -1.9065233285
C     2.3049073677     0.3707407907     -2.2321622307
C     3.2178938742     -1.9855539302     -0.0002855163
C     2.4792920052     -1.8551845773     -1.249937546
C     3.1110920561     -0.7467089628     1.906325277
C     2.4792856292     -1.8555666679     1.2494199069
C     2.8778990016     1.4769820506     1.4242704295
C     2.3049016998     0.3700791558     2.2322687311
C     1.9735969333     2.2658209474     -0.7366728722
C     1.9735950741     2.2656050318     0.7373414842
C     0.5826830305     2.3114452803     -1.1355068479
C     0.8974726471     0.2135799436     -2.3618710005
C     0.0512235141     1.3760644488     -2.0781079596
C     1.0804117815     -1.9601143671     -1.245875135
C     0.28186588     -1.0757807885     -2.0917868435
C     1.0804098113     -1.9604891536     1.245313476
C     0.4244368047     -2.3838854158     -0.0003463666
C     0.8974592309     0.212888067     2.3619316045
C     0.2818573753     -1.0763885646     2.0914713687
C     0.5826790955     2.3111129302     1.1361870175
C     -0.2393382335     2.6316588562     0.0003868297
C     0.0512147735     1.3754586174     2.0785161642
C     -1.6503729653     2.4532285651     0.0003584959
C     -1.3448275739     1.228716121     -2.1030360569
C     -2.2460141772     1.9965780417     -1.2307432636
C     -1.155239671     -1.2050700028     -2.079254326
C     -1.9739405946     -0.0473161763     -2.3878936034
C     -0.9397909928     -2.4840880922     -0.0003630184
C     -1.7475729738     -2.1748495     -1.1848435145
C     -1.15525094     -1.205675125     2.0788995856
C     -1.7475803559     -2.1751969715     1.184207808
C     -1.3448367483     1.2281038472     2.1033981542
C     -2.2460185911     1.9962177981     1.2313244687
C     -1.9739503643     -0.0480123906     2.387875118
C     -3.4811015068     1.3178284572     1.2157544613
C     -3.3170872428     0.046358318     1.9468148428
C     -3.4810959416     1.3181848127     -1.2153767077
C     -3.3170755834     0.0469252841     -1.9468079869
C     -4.1789659113     1.0272547223     0.0001436964
C     -3.0721815013     -2.0432555681     -0.7348990168
C     -3.072186208     -2.0434727907     0.7342984891
C     -3.9227263123     -0.9603408669     1.1475803989
C     -3.9227211865     -0.9600072301     -1.1478706746
C     -4.5701082235     -0.3664090242     -0.0000602472


