50

 C     4.2234124502     -0.5653161002     -0.6276160732
C     3.7396487542     -1.2592569947     0.5223858962
C     3.4806031989     -0.3388676838     1.5716260441
C     4.073598202     0.8485497065     -0.3627297135
C     3.6167461673     0.9906238887     0.9978054778
C     3.2213314043     1.3841984951     -1.369193476
C     3.2872662398     -0.8935908104     -1.6852532159
C     2.7805736367     0.281971567     -2.261004946
C     2.6557912307     -2.1685628674     0.1477179691
C     2.3303606299     -1.8898829016     -1.2448956023
C     1.6170754671     -2.3933303851     1.0509099576
C     2.2559239329     -0.386841993     2.3150702845
C     1.4006647052     -1.4779760347     2.1658740112
C     2.4445974119     1.7214398408     1.3290146846
C     1.6279314659     0.9198112151     2.258395909
C     2.0991517232     2.1810336211     -1.0815503447
C     1.7504179617     2.462420435     0.2993993361
C     1.4023381137     0.4372190691     -2.5136994838
C     0.9966328394     1.7098428302     -1.9239619788
C     0.9624463385     -1.8209530701     -1.6488306429
C     0.4741292054     -0.6320815508     -2.3532961137
C     0.3182265986     -2.7423324022     0.5542430401
C     -0.0039852215     -2.5226023061     -0.8124821936
C     -0.0423125534     -1.340849077     2.3473338081
C     -0.6773962431     -2.3552413318     1.5505022818
C     0.2228789113     1.0811922834     2.3651466628
C     -0.683608383     -0.0842649013     2.4976052203
C     0.4099140034     2.770909822     0.5480736342
C     -0.3070807707     2.2282671389     1.6914098989
C     -0.3511443615     2.0320843375     -1.6842187912
C     -0.5777971415     2.8462280511     -0.5185500936
C     -0.9615699763     -0.2950289308     -2.3484734762
C     -1.3986455525     1.0934650455     -2.125837046
C     -1.3874731687     -2.4006757663     -1.1324445571
C     -1.8662639238     -1.3446988091     -2.0326237314
C     -2.013232255     -2.2873615599     1.2244273912
C     -2.3872692958     -2.6255659472     -0.1378108493
C     -2.1294534845     0.017109419     2.1420225067
C     -2.8049102895     -1.133239157     1.6158182213
C     -1.6935051381     2.3427394619     1.4513288132
C     -1.8631573792     2.8623768218     0.0732678867
C     -2.6222773106     1.3159549965     1.6887910416
C     -2.7373653407     1.322746047     -1.649460224
C     -2.9056559751     2.1821222287     -0.4955654477
C     -3.574481963     1.385228882     0.5687969879
C     -3.2343814892     -1.0745297304     -1.6676552229
C     -3.5376789715     -1.8768151186     -0.4647827127
C     -3.8728895041     -1.0057440967     0.5923942655
C     -3.6342774837     0.2265137485     -1.4344626599
C     -4.1238504159     0.2715645738     0.0070393657


