50

 C     3.9438716315     0.697437705     0.8102752815
C     3.8627719897     -0.7305143073     0.4458190773
C     3.757493762     -0.8055917532     -0.9608350048
C     3.5474761387     1.4541648138     -0.3442341829
C     3.4369029666     0.5792276077     -1.4295096811
C     2.3876550708     2.2579726401     -0.0012793341
C     2.9908604948     0.9460578855     1.803085673
C     2.0939669779     2.0042821072     1.4007945108
C     2.869956747     -1.3631225729     1.2578461316
C     2.39416507     -0.3222678553     2.200868714
C     1.891689829     -2.2596366202     0.6847295913
C     2.8087653259     -1.6462441391     -1.5266740056
C     1.9337452604     -2.4433702828     -0.7506030555
C     2.2619602471     0.5282683105     -2.2565339759
C     1.9636093506     -0.8534727221     -2.4573535923
C     1.2998201708     2.3879458598     -0.904369935
C     1.1615620639     1.4232947839     -2.0441161934
C     0.1013361792     2.900240854     -0.336583068
C     0.7473627276     2.0240814213     1.8786054745
C     -0.211400565     2.6882068306     1.0839458858
C     1.0974466896     -0.3342020015     2.6491170143
C     0.2678715161     0.8814000759     2.6219610519
C     0.5749398284     -2.3721214948     1.3436906923
C     0.2292590705     -1.4513308638     2.3772185788
C     -0.5405335918     -2.9138663398     0.5875057743
C     0.664610404     -2.4609164722     -1.4866160724
C     0.6669793947     -1.3512643807     -2.4531152618
C     -0.4967665222     -2.7929335881     -0.8764585028
C     -0.1740818855     0.966818364     -2.3964844911
C     -0.4616843556     -0.4696470569     -2.5236771657
C     -1.0988430558     2.8627621429     -1.0477744095
C     -1.2918155097     1.8297966067     -2.0567601446
C     -1.6319374838     2.4446005051     1.1900629145
C     -2.1815573036     2.7407318554     -0.1127614579
C     -1.1016357748     0.4962456227     2.5823208045
C     -1.1254866954     -0.9678379253     2.5183240311
C     -2.1087970786     1.289952893     1.9054351145
C     -1.865780583     -2.6705591961     0.9525233432
C     -2.1937399313     -1.6474838394     1.9153766491
C     -1.7679253348     -2.2324776968     -1.3399811531
C     -1.7654997712     -1.0124080584     -2.1203286528
C     -2.6687785559     -2.3950992216     -0.2557105496
C     -2.5966087338     1.3287188879     -1.9413789633
C     -3.1675027258     1.9253695244     -0.7002938583
C     -2.8569794743     -0.0807755465     -1.885663859
C     -3.2534528379     0.5689169657     1.35209907
C     -3.2527098685     -0.8571278126     1.3765910733
C     -3.6081460317     -1.3940293403     0.0405987428
C     -3.7514790859     0.916208746     0.0375551471
C     -3.7829321511     -0.3144019215     -0.8072517709


