50

 C     -3.1238676721     -1.6199528818     -1.2773564449
C     -3.6591317081     -0.7219154472     -0.3193434684
C     -3.4387367735     0.6258412539     -0.801839914
C     -2.3681503432     -0.9005650851     -2.2434043028
C     -2.516391235     0.5057651775     -1.9569724341
C     -1.0837994652     -1.5140953523     -2.359604461
C     -2.2998791915     -2.614360142     -0.6627073
C     -1.0958201747     -2.6905191083     -1.4303334398
C     -3.1127170247     -1.1284752579     0.9466109415
C     -2.2309463886     -2.3078095531     0.7328803389
C     -2.7071066856     -0.1325050697     1.84738209
C     -3.2078467895     1.6244894391     0.1439522589
C     -2.9356754149     1.2264131325     1.5122081331
C     -2.2458648215     2.646747248     -0.162581639
C     -1.3812055976     1.3363594831     -2.0855319835
C     -1.346191925     2.5112803395     -1.2233766251
C     0.084777722     -0.7403148347     -2.505496158
C     -0.0847758001     0.7403118035     -2.5054970591
C     1.3812072322     -1.3363620292     -2.0855294021
C     0.0515421737     -3.0341662442     -0.7751776127
C     1.3461928481     -2.5112818133     -1.2233726614
C     -0.9833128036     -2.4240133989     1.4143126552
C     0.0691042284     -3.0845759984     0.6810550994
C     -1.3956786862     -0.2191149242     2.5189560795
C     -0.5619267965     -1.3510026354     2.3681838129
C     -1.8133973583     1.997559439     2.0116604647
C     -1.4280586868     2.913167211     1.0402265566
C     -0.8378554068     1.1138510116     2.5862847774
C     -0.0515416096     3.0341653688     -0.7751812885
C     -0.0691047543     3.0845769365     0.6810513549
C     1.0838012984     1.5140925139     -2.3596053958
C     1.0958212589     2.6905173817     -1.4303358447
C     2.5163927891     -0.5057675812     -1.9569699593
C     2.3681521353     0.9005624055     -2.2434035901
C     3.4387374534     -0.6258422641     -0.8018366586
C     2.2458649091     -2.646747388     -0.1625768031
C     1.4280578054     -2.9131658752     1.0402311578
C     3.207846684     -1.6244892793     0.1439565762
C     0.8378533962     -1.1138477019     2.5862867143
C     1.813395802     -1.997556907     2.0116642539
C     2.9356742418     -1.2264112978     1.5122118572
C     0.5619249011     1.3510056416     2.3681825831
C     0.9833116107     2.4240152136     1.414310482
C     1.3956766832     0.2191180423     2.5189568325
C     2.7071052447     0.1325073545     1.8473839207
C     2.2998796685     2.614359321     -0.6627086727
C     3.1238688713     1.6199513526     -1.277356145
C     3.6591320929     0.721915115     -0.3193416822
C     2.2309458007     2.307810463     0.7328791531
C     3.1127162615     1.1284764214     0.9466118518


