50

 C     -4.0400466064     -0.4428663887     0.9340973774
C     -3.996552706     -0.9123450847     -0.3553458235
C     -3.0977843237     -2.0575203094     -0.4810078868
C     -3.0436423268     -1.2131677916     1.6880702279
C     -2.4650766184     -2.2276447788     0.7885826753
C     -2.1511234549     -0.2870775852     2.2208077583
C     -3.6452271411     0.9622843724     0.9087148329
C     -2.5438636516     1.0932828101     1.7584618612
C     -3.6000631987     0.1371870578     -1.292971935
C     -3.4467029962     1.3471093983     -0.5091433214
C     -2.2767796199     -1.7678144573     -1.6030924843
C     -2.5193236976     -0.3656414193     -2.0505432098
C     -0.9793494516     -2.2341324962     -1.6072996369
C     -1.0658625885     -2.5233329841     0.849307422
C     -0.4225535808     -2.8050871802     -0.3961949153
C     -0.7600690681     -0.6033328657     2.4336910067
C     -0.2287526612     -1.8537116999     1.8655263848
C     0.1216765728     0.4820333115     2.6208678266
C     -1.5109491913     2.0675828252     1.5131955307
C     -0.2359713456     1.8302802948     2.0901995552
C     -2.3841898234     2.163572734     -0.8286242512
C     -1.5514396352     2.7571521769     0.2436542886
C     -1.3840517865     0.4678541401     -2.3905618517
C     -1.4694198015     1.8129444379     -1.9142076998
C     0.0989062304     -1.5166535646     -2.2574379637
C     -0.0431894458     -0.1248541404     -2.5698775856
C     1.0050181421     -2.7892879641     -0.5302429001
C     1.3367680158     -2.059451193     -1.7592256817
C     1.1700364767     -1.9957279059     1.7821710893
C     1.8006217896     -2.6053677601     0.6014672365
C     1.5383166041     0.3255163386     2.5346687241
C     2.0767050834     -0.9495682204     2.2355741267
C     0.9640281284     2.3812440426     1.5515432276
C     2.0888669247     1.5065455634     1.8783617852
C     -0.3448668495     3.1646590148     -0.3327839135
C     -0.2661069283     2.5351450072     -1.6788279831
C     0.9061482013     3.0052212045     0.2764094123
C     1.1752958571     0.6953507104     -2.4185427216
C     1.0073045752     2.0531586716     -1.9043482049
C     1.8356855894     2.514600892     -0.7559169353
C     2.5225662631     -1.3337966096     -1.836328834
C     2.4254310008     0.0798490163     -2.1542104061
C     3.1038150549     -2.0375063837     0.4343252749
C     3.3022890283     -1.0291958438     1.4999743886
C     3.5224750462     -1.5046598412     -0.7921301947
C     3.163418695     1.3764857815     0.9936169115
C     2.9624364969     1.8337385917     -0.403233196
C     3.3964257912     0.7367652523     -1.2656184712
C     3.8518567889     0.1110642683     0.9001987333
C     4.0968631427     -0.2008834461     -0.5157706502


