50

 C     -0.7354503447     3.3663590791     0.0000009999
C     -1.1928330976     2.8455838859     -1.23665314
C     -0.0000282783     2.4600833092     -2.0020435057
C     0.7354503447     3.3663590791     -0.0000009999
C     1.1928192002     2.8456616825     -1.2366869819
C     1.1928330976     2.8455838859     1.23665314
C     -1.1928192002     2.8456616825     1.2366869819
C     0.0000282783     2.4600833092     2.0020435057
C     -2.3377054748     2.0137854147     1.23665314
C     -2.3377837584     2.013796238     -1.2366869819
C     -2.9743311594     1.7397169521     -0.0000009999
C     -2.3396870764     0.7601806006     -2.0020435057
C     0.0000356582     1.2457956327     -2.6788412276
C     -1.1848111116     0.3850058797     -2.6788412276
C     1.1848331496     0.3849380538     -2.6788412276
C     2.3377054748     2.0137854147     -1.23665314
C     2.3396695995     0.7602343891     -2.0020435057
C     2.3377837584     2.013796238     1.2366869819
C     2.9743311594     1.7397169521     0.0000009999
C     2.3396870764     0.7601806006     2.0020435057
C     -0.0000356582     1.2457956327     2.6788412276
C     1.1848111116     0.3850058797     2.6788412276
C     -2.3396695995     0.7602343891     2.0020435057
C     -1.1848331496     0.3849380538     2.6788412276
C     -3.4288644695     0.3408072666     0.0000009999
C     -3.0749168721     -0.2551179659     -1.23665314
C     -3.0749865665     -0.2550807082     1.2366869819
C     -2.6376490212     -1.6010672716     -1.2366869819
C     -0.7322891954     -1.0078490238     -2.6788412276
C     0.7322314993     -1.0078909425     -2.6788412276
C     -1.445977858     -1.990265971     -2.0020435057
C     1.4460236132     -1.9902327279     -2.0020435057
C     3.0749865665     -0.2550807082     -1.2366869819
C     3.4288644695     0.3408072666     -0.0000009999
C     3.0749168721     -0.2551179659     1.23665314
C     2.6376145367     -1.6009961641     -1.23665314
C     2.6376490212     -1.6010672716     1.2366869819
C     2.5736880951     -2.2911549825     0.0000009999
C     0.7322891954     -1.0078490238     2.6788412276
C     -0.7322314993     -1.0078909425     2.6788412276
C     1.445977858     -1.990265971     2.0020435057
C     -2.6376145367     -1.6009961641     1.23665314
C     -2.5736880951     -2.2911549825     -0.0000009999
C     -1.4460236132     -1.9902327279     2.0020435057
C     -0.7075700419     -3.0032555706     -1.23665314
C     0.7076270129     -3.0033103407     -1.2366869819
C     1.3837044402     -3.1557287153     -0.0000009999
C     0.7075700419     -3.0032555706     1.23665314
C     -1.3837044402     -3.1557287153     0.0000009999
C     -0.7076270129     -3.0033103407     1.2366869819


