50

 C     -3.6820207365     -0.9074287536     0.3768702804
C     -3.0219771028     -1.0621988681     1.6047793486
C     -2.6972168032     0.2798782702     2.1256399938
C     -3.7268764993     0.5531324099     0.0707354186
C     -3.1008497449     1.2558029674     1.1491563742
C     -3.2471663729     0.7140247108     -1.2562480876
C     -3.220548525     -1.5990209868     -0.7467073231
C     -2.9467818403     -0.5892923631     -1.7866880811
C     -2.0999794141     -2.4711382751     -0.6604070398
C     -1.8821148822     -1.8908003117     1.7283731372
C     -1.441300277     -2.6948232384     0.613852531
C     -1.3965077199     0.2532159722     2.6197007628
C     -0.8916179609     -1.1274423998     2.4873594596
C     -0.485680045     1.3736401185     2.3959129799
C     -2.2230171214     2.3413880902     0.859701475
C     -0.9238219667     2.4226844164     1.4996136191
C     -2.3248407102     1.7639630124     -1.5426582722
C     -2.0011492057     2.6761023119     -0.5092348835
C     -1.1036884617     1.5020658031     -2.3089018671
C     -1.7087786482     -0.8690561267     -2.3746236267
C     -1.2557066915     -2.1416643297     -1.8108570359
C     -0.72873082     0.1829365908     -2.636755702
C     0.0850943652     -2.453691282     -1.8069153785
C     -0.0450173208     -3.0160365847     0.5764570184
C     0.6258301716     -3.1059409371     -0.6681711097
C     0.4856809696     -1.3736510867     2.395906389
C     0.9238226685     -2.4226912103     1.4996021848
C     0.8916187942     1.127431019     2.4873646861
C     1.3965086816     -0.2532280806     2.6196994033
C     1.882115533     1.8907923896     1.7283816415
C     0.0450175785     3.016033791     0.5764712151
C     -0.6258302796     3.1059437026     -0.6681565274
C     -0.0850947901     2.4536994554     -1.8069038639
C     1.4413005599     2.6948203151     0.6138649351
C     1.2557063065     2.1416724023     -1.8108471151
C     2.0999793439     2.4711411971     -0.6603958557
C     0.7287301478     -0.1829244606     -2.6367566474
C     1.1036879168     -1.5020551389     -2.308909073
C     1.70877809     0.8690669976     -2.3746197974
C     2.0011490555     -2.6760997733     -0.5092477305
C     2.2230175077     -2.3413920405     0.8596902779
C     2.3248404677     -1.7639559105     -1.5426668988
C     2.697217566     -0.2798879975     2.1256381962
C     3.0219778564     1.0621914994     1.6047837987
C     3.1008504637     -1.2558082507     1.149149834
C     3.2205483009     1.5990243134     -0.7467003893
C     2.9467814512     0.5893004662     -1.7866858057
C     3.2471661359     -0.7140188427     -1.2562519243
C     3.6820209682     0.9074269215     0.3768738512
C     3.72687704     -0.5531328948     0.0707322241


