50

 C     -4.1863916634     0.7366163652     -0.1439248508
C     -3.3782042218     1.2831318942     -1.188220903
C     -2.9318062931     0.2665135864     -2.0742354036
C     -3.9868640251     -0.7113719248     -0.250855216
C     -3.324026921     -1.0239126033     -1.4667817774
C     -3.4743382242     -1.2276049784     0.9835588754
C     -3.5048957844     1.1088223828     1.0618053177
C     -3.1545039656     -0.0455788039     1.8049310982
C     -2.3580007231     2.1563554679     -0.6520900338
C     -2.4268303529     2.0375079514     0.7870653828
C     -1.087076092     2.2693665708     -1.2813727171
C     -1.5833714646     0.1856568203     -2.4804811958
C     -0.6363136845     1.2458106157     -2.2275206915
C     -2.1757531674     -1.8396914375     -1.4579240086
C     -1.141874244     -1.1765767377     -2.2620988316
C     -2.3447208843     -2.0556067864     1.0070879875
C     -1.7346955948     -2.4976192507     -0.2349946733
C     -1.8779622913     -0.213707539     2.3946810231
C     -1.4166298091     -1.5288906914     2.0379389604
C     -1.2240346266     2.0381635395     1.5766778848
C     -0.9242159114     0.869842167     2.4381463681
C     -0.0977082624     2.891361569     -0.466599773
C     -0.1322396039     2.704272101     0.9963411066
C     1.22723907     2.8879217358     -0.8736678748
C     0.7826620085     0.950431437     -2.3443157853
C     1.7012533751     1.9398944459     -1.8364035489
C     0.21674856     -1.5195611465     -2.1720033818
C     1.2385821286     -0.4748410598     -2.3916092126
C     -0.3878104007     -2.8814845363     -0.1950231962
C     0.5116458678     -2.6245801073     -1.2869031983
C     -0.0483564986     -1.861975018     2.0542255526
C     0.4189111853     -2.7966083614     1.0461256942
C     0.4303642481     0.5233784603     2.6332022571
C     0.8825742427     -0.8634465648     2.5003172145
C     1.2356404486     2.5122756562     1.4399355288
C     2.0945386979     2.8073447528     0.3227202503
C     1.5229536131     1.37454937     2.2159800572
C     3.0211947647     1.5626122358     -1.3855949682
C     3.1829390969     2.0272773129     0.0257992656
C     2.5771620472     -0.7771608571     -1.9966923466
C     3.4239122207     0.2607200976     -1.4517841518
C     1.8289912768     -2.7736128376     -0.7756326934
C     1.764659245     -2.8311305721     0.7088897182
C     2.8345430007     -1.9309978334     -1.1572678055
C     2.2630100944     -0.8689759846     2.0926576761
C     2.680041605     0.5322941032     1.9000010301
C     3.535340727     0.8803320865     0.8376453284
C     3.9059601145     -0.1719665416     -0.102948844
C     2.7168421727     -1.8811544333     1.2114746492
C     3.5409138987     -1.4743951184     0.0797338559


