50

 C     4.107056257     -0.5808846928     -0.8164871314
C     3.6705723028     -1.8741679299     -0.3858247656
C     3.1661541221     -1.7541143892     0.9602593664
C     3.8608190141     0.3200874774     0.2576253772
C     3.243854596     -0.3756077349     1.3728338939
C     3.2141567646     1.527846712     -0.2187252762
C     3.1450275006     -0.1287389426     -1.8000837091
C     2.6909930368     1.2133456713     -1.5425786156
C     2.5123530617     -2.2313008409     -1.1298318854
C     2.1646479455     -1.1433426562     -2.0444673237
C     1.9045869826     -2.4431919673     1.0785147005
C     1.4845437197     -2.7945293682     -0.2881256732
C     0.935300117     -1.9351923522     1.924694143
C     2.1463054255     0.2418718675     2.1062882339
C     1.0427298731     -0.5872158449     2.4896235632
C     2.4083281395     2.2470236467     0.6554859298
C     1.8287824081     1.6105635589     1.8557166528
C     1.41225499     3.0673835121     0.0834539342
C     1.3767231989     1.6139665673     -1.9127389313
C     0.8799119854     2.7776481209     -1.1991692887
C     0.8035418523     -0.8097584526     -2.2433635327
C     0.4025543039     0.6058339389     -2.3493866757
C     0.1506200899     -2.664213184     -0.6533719122
C     -0.1882147968     -1.8073782086     -1.8146198003
C     -0.4492148639     -2.2153484949     1.6694074743
C     -0.8741715405     -2.7280851235     0.4158015061
C     -0.2907889253     -0.0876892134     2.6257049845
C     -1.2272519785     -1.1689244602     2.3199176625
C     0.4834772106     2.1183856377     2.0039197171
C     0.2935382443     3.166337364     1.0285297959
C     -0.640226751     1.2684371557     2.3254507304
C     -0.5329281714     3.0060614968     -1.1032978119
C     -0.8817284451     3.2548804348     0.3244871196
C     -1.0173629805     0.9010310801     -2.2883704953
C     -1.4625198423     2.1301975623     -1.6179066052
C     -1.537724445     -1.5414353693     -2.0254120814
C     -1.9613798715     -0.1595105412     -2.307678766
C     -2.2412274903     -2.5601768034     0.0648899618
C     -2.5916329903     -2.216102668     -1.2812527592
C     -2.5274796102     -0.938681241     1.9431264449
C     -3.1398406309     -1.8413299606     0.9867780877
C     -1.9677772893     1.5249186758     1.7133185556
C     -2.024029713     2.481206195     0.6436247978
C     -2.5802250758     2.0452493598     -0.6377222912
C     -2.9371430117     0.4507483049     1.6278549353
C     -3.2518245435     -0.0251038339     -1.6964116768
C     -3.6688001455     -1.2758525481     -1.174794588
C     -4.0045396713     -1.0656278731     0.2041014419
C     -3.4891896657     1.0279707311     -0.6913810117
C     -3.8416086929     0.3525106239     0.5415895973


