50

 C     3.9238415129     -1.0559937593     0.5553162531
C     3.9759541799     0.1292320801     -0.2819496762
C     3.4107407643     -0.2012030762     -1.5139071262
C     3.1453738054     -2.0811225556     -0.1487286831
C     2.9088118108     -1.6046314156     -1.4381142355
C     2.0120680366     -2.4927273111     0.661023983
C     3.1549586655     -0.6979649536     1.6656596695
C     2.0714205659     -1.650304411     1.8441823282
C     3.3891574092     1.2554920174     0.4396369188
C     2.8486739996     0.7330090339     1.6769174926
C     2.6163762493     2.1899046476     -0.2807104557
C     2.3860180009     0.5946827752     -2.122807132
C     2.0922586292     1.8642750097     -1.5988531263
C     1.607643522     -1.6262252497     -1.979735526
C     1.2910703232     -0.2899717532     -2.4929847979
C     0.7394347679     -2.7334518233     0.0704892001
C     0.5695421612     -2.3655576383     -1.336939924
C     -0.4648101756     -2.6101460946     0.9241205656
C     0.9012146599     -1.2066162855     2.4355759414
C     -0.3564801048     -1.8247295691     2.1007583713
C     1.582822522     1.1843884699     2.1926432379
C     0.6601259056     0.2005534449     2.6755400915
C     1.5636418775     2.8712183174     0.4109776602
C     0.993870579     2.359027416     1.5929812224
C     0.710371891     2.3516179152     -1.6520044078
C     0.4804024935     3.1453955935     -0.5110672298
C     -0.0524219472     0.1657360111     -2.6124515235
C     -0.3760521372     1.5538645108     -2.220879555
C     -0.742354029     -2.1020683058     -1.8310958432
C     -1.0625756456     -0.8250051224     -2.494559273
C     -1.7755553961     -2.6798835704     0.30117547
C     -1.8768200722     -2.5192099481     -1.140191765
C     -2.8880618068     -2.0136343122     0.8578339484
C     -1.4066766569     -0.8848197309     2.4619180403
C     -0.7826922225     0.3915460369     2.652091094
C     -2.6800566334     -1.005907149     1.8626342585
C     -0.4730730508     2.5137571317     1.4993390896
C     -0.7537909961     3.0349335646     0.1801596769
C     -1.3756158961     1.5816320556     2.0786456668
C     -1.6881175306     1.8241585434     -1.7786310824
C     -1.8822300464     2.6058946931     -0.5387292584
C     -2.4404039136     -0.5097373316     -2.2060800136
C     -2.9816017138     -1.6184675582     -1.4373281791
C     -3.6599297347     -1.3786558574     -0.2415340895
C     -2.7593241338     0.8185853218     -1.8273228965
C     -3.3463987028     0.1831960616     1.4471183952
C     -2.6932099983     1.4538409119     1.4773865717
C     -2.9232014147     2.0049072523     0.1701696651
C     -3.9827909985     -0.0517283997     0.1345724909
C     -3.6115483749     1.018914366     -0.6822605033


