50

 C     -3.9269656563     -0.3845097038     -0.0849500957
C     -3.4689741532     0.5043723623     -1.1502214615
C     -3.1320536121     1.7344257585     -0.5673016417
C     -3.506868239     0.2269109212     1.188883842
C     -3.1100669141     1.5203646865     0.9305785887
C     -2.5685653753     -0.650962157     1.8433284393
C     -3.255563524     -1.58020641     -0.2062381993
C     -2.4702943018     -1.8315972298     1.0048791862
C     -2.5120315215     -0.1816083082     -1.9813598875
C     -2.5049492963     -1.5539851568     -1.473254337
C     -1.2735130111     0.438046654     -2.3605288951
C     -1.9539072387     2.3779117772     -0.9093663246
C     -1.0544060676     1.8278459145     -1.9224488249
C     -1.8873934012     2.052481886     1.4268125181
C     -1.3408895665     2.8618184367     0.3562635223
C     -1.3806124116     -0.1311238822     2.4587696544
C     -1.0031099293     1.2854641052     2.2574020411
C     -0.3288963344     -1.0842163437     2.6407053528
C     -1.28241944     -2.6103867462     0.928209386
C     -0.2660685086     -2.3361200495     1.8771147867
C     -1.3813749788     -2.3073093494     -1.5781164071
C     -0.8620605293     -3.0712944213     -0.4021692204
C     -0.0972730738     -0.4283601883     -2.6085563574
C     -0.248047031     -1.8275491843     -2.3405388396
C     1.2653310114     0.128499373     -2.4999027151
C     0.254717394     2.3609053627     -1.9108241769
C     1.4130552428     1.526562363     -2.2432232522
C     -0.046848137     3.2809059668     0.3670927987
C     0.6564631328     3.342167419     -0.9059484536
C     0.4187681688     1.6830794622     2.246490112
C     0.8547690488     2.7575930816     1.3942722141
C     0.997593139     -0.6428765568     2.8067766432
C     1.4083136278     0.6785722098     2.5404146431
C     1.1383051257     -2.6462138356     1.6019742779
C     1.9105929978     -1.5992403551     2.1843804543
C     0.4665337683     -3.3319316474     -0.6532963778
C     0.8517066535     -2.6303446323     -1.915696935
C     1.5142638064     -3.1178892448     0.32131236
C     2.3401727267     -0.7098864159     -2.0027931286
C     2.0946611127     -2.0894332901     -1.7279515243
C     2.5726780584     -2.428414833     -0.3676338678
C     2.6538353646     0.5661669214     1.7655472385
C     2.8763835391     -0.8655586733     1.4714036742
C     3.1887602234     -0.2474806532     -0.920866907
C     3.1941664077     -1.2783804923     0.1452215287
C     2.4832992932     1.9891005872     -1.420707769
C     1.9912681388     3.0866924837     -0.6063204389
C     2.1460721321     2.7116943569     0.767976356
C     3.2114801308     1.0974994604     -0.5902585581
C     2.9599640078     1.5277942105     0.8246679779


