50

 C     3.5424076593     0.7493869611     -0.8104176707
C     2.8520561698     1.9655327016     -0.7872510882
C     2.5071954074     2.2321393025     0.6178342977
C     3.5341363346     0.1875941081     0.5718648214
C     2.8404916607     1.0781178699     1.4257172931
C     3.2086174393     -1.2011378679     0.4989945818
C     3.1235391639     -0.2475627321     -1.6752369043
C     2.9940105955     -1.5120452495     -0.8995934668
C     1.9643301599     -0.0907595642     -2.482147515
C     1.6924621265     2.1768261825     -1.5757877853
C     1.1857099024     1.133548834     -2.4385171351
C     1.2611964207     2.8457521236     0.6805011533
C     0.7583250369     2.919375937     -0.7082193139
C     0.3629543405     2.4751734347     1.7175244861
C     1.8579409426     0.5638983065     2.3682114376
C     0.6650666495     1.3389832017     2.5735919804
C     2.3250369198     -1.736176553     1.4451330474
C     1.7465189834     -0.8706177426     2.4718527356
C     1.3100376405     -2.6936494851     1.0280468253
C     1.8732166929     -2.1976110064     -1.3329344789
C     1.2815434599     -1.3709015829     -2.4240390022
C     1.0004986395     -2.8687228989     -0.3673756951
C     -0.0607772984     -1.4573678464     -2.6846304113
C     -0.2741322301     1.0353614388     -2.6365783658
C     -0.8687247916     -0.2436227419     -2.8663777022
C     -0.5818630969     2.8920900557     -0.9363007947
C     -1.1300615859     2.0348353542     -2.0114927696
C     -1.0509692788     2.5532127257     1.4910262167
C     -1.5267243379     2.8772512743     0.1921552446
C     -0.6085679298     0.7117217955     2.8842251833
C     -1.6718650589     1.4568670053     2.2264040867
C     0.4955126186     -1.4469648257     2.8133892489
C     0.2344702454     -2.5807462164     1.9614230314
C     -0.6962840991     -0.6845383771     2.967106817
C     -1.1251925995     -2.5493232382     1.5639670267
C     -1.7615653735     -1.398616382     2.2475610784
C     -0.373542824     -3.0129229765     -0.7332210414
C     -0.8424456128     -2.4222061199     -1.9595619575
C     -1.4513851268     -2.84851089     0.2341016392
C     -2.191099655     -0.5686830179     -2.3675819933
C     -2.1421955123     -1.8886875453     -1.7837731834
C     -2.5270001752     -2.110956758     -0.4165350481
C     -2.446290293     1.7362846391     -1.6491528206
C     -2.7045953482     2.2651920819     -0.2856069963
C     -2.980845061     0.4115841746     -1.7375285165
C     -2.7754599861     0.778871474     1.6870471459
C     -2.767402719     -0.689756989     1.6256852981
C     -3.2055415593     -1.082429561     0.2696509365
C     -3.3231418519     1.2471696071     0.4440256627
C     -3.5296028044     0.1077505782     -0.4371786195


