50

 C     -3.490963593     -1.4399788868     -0.5225140781
C     -3.1157532057     -0.7756898816     -1.6763761137
C     -3.2386490045     0.6793398792     -1.4649098564
C     -3.8267045991     -0.3911752526     0.4795915257
C     -3.630158612     0.9136879811     -0.1114189163
C     -3.1207200166     -0.7235049784     1.6233827158
C     -2.5821580036     -2.3973892462     0.0794531795
C     -2.4180120945     -2.0005454193     1.4425494061
C     -1.4307768698     -2.7896875988     -0.64017607
C     -1.8525670978     -1.0277212278     -2.3180168671
C     -1.0807805559     -2.1042469558     -1.8652720123
C     -2.094615861     1.2913310117     -2.0333749653
C     -1.2041031082     0.252300876     -2.5616046091
C     -1.5370874721     2.4161984564     -1.3843237847
C     -2.9060414039     1.9021326847     0.6262005105
C     -2.0247655592     2.753500592     -0.0959668451
C     -2.207594761     0.2010339115     2.2618692019
C     -2.162598713     1.5158658137     1.8224442223
C     -1.1312413841     -1.8740879825     1.9966091959
C     -0.9655870645     -0.5244430412     2.5399479114
C     -0.1741705193     -3.0167927124     0.0526331263
C     -0.0031801014     -2.5203037291     1.3813202292
C     0.3674648472     -2.0296980464     -1.958857163
C     0.9179460413     -2.820199821     -0.886271742
C     0.2101975488     0.3910454396     -2.5261863411
C     1.0233778121     -0.8312266999     -2.3841117398
C     -0.0903643735     2.6095233126     -1.4101107201
C     0.7767944422     1.6778793588     -2.045777547
C     -0.8544969228     3.0743814953     0.7148661847
C     -0.8455359785     2.2083646245     1.8156394388
C     0.2961044859     3.1528606392     -0.1149525908
C     0.3035896316     0.1140551245     2.5917199734
C     0.3831391574     1.5538768313     2.2299823481
C     1.2941148827     -2.0412733192     1.7848752531
C     1.4534634974     -0.7008090306     2.3870322128
C     2.2160968845     -2.5722606373     -0.4154840487
C     2.4165509526     -2.2855707458     0.9974755683
C     2.4187726247     -0.7155229319     -2.0169230068
C     3.0120624089     -1.6352584897     -1.1036773676
C     2.1643600713     1.7266105208     -1.6331872514
C     2.9827426697     0.5657069543     -1.7059866175
C     1.5309140278     2.848425051     0.4551226884
C     1.5906148055     2.0280201943     1.6673715156
C     2.5352431065     2.3629553889     -0.3998323978
C     2.7259832431     -0.169970871     1.9632835861
C     3.3674630734     -1.1818936811     1.1440470669
C     3.842790432     -0.8504886425     -0.1257199741
C     3.888676537     0.4831551527     -0.5521302718
C     2.806328724     1.1912290164     1.5622816985
C     3.4638359674     1.5062625182     0.3334641385


