50

 C     -3.4785017815     -1.6213251655     -0.2048623131
C     -3.3692118422     -0.8121847877     0.9344978706
C     -3.3044624871     0.5934793149     0.5592657104
C     -3.257333883     -0.7851737204     -1.3377562044
C     -3.2780918486     0.5997714266     -0.8863768443
C     -2.087436151     -1.2474333154     -1.9889066187
C     -2.4002997289     -2.6026436005     -0.1364670716
C     -1.5820078045     -2.457733417     -1.2743127599
C     -2.3898773346     -1.3885198003     1.8413460535
C     -1.7984611912     -2.5653630987     1.1614744241
C     -1.5597576309     -0.5276711201     2.5337569336
C     -2.4770487501     1.500549943     1.3083519381
C     -1.6237631237     0.9276466505     2.3308929129
C     -1.9649681555     2.6531907572     0.6009661312
C     -2.4722065055     1.5406766959     -1.5483691045
C     -2.0124356624     2.6450946982     -0.8340378632
C     -1.135588152     -0.3246952643     -2.5771019409
C     -1.3567083953     1.0790556101     -2.4218755664
C     0.2079635559     -0.7470436016     -2.7260928484
C     -0.1806213545     -2.7238259947     -1.19264412
C     0.6774015915     -2.0289920495     -2.1248324556
C     -0.4292026447     -2.8086606246     1.2679657997
C     0.3794915926     -3.0351159012     0.0943406273
C     -0.1664322862     -0.8943907959     2.790188688
C     0.3876204266     -2.0308265946     2.1978266854
C     -0.3050320293     1.430033456     2.5592300013
C     0.6009424595     0.3294805573     2.8606941596
C     -0.6758719813     3.1846187378     0.9271149521
C     0.1799708315     2.5589792511     1.8271309696
C     -0.6825808816     3.0168253788     -1.3659628863
C     -0.2488835643     1.9880654938     -2.2797624641
C     0.1090877799     3.3936048551     -0.3215836857
C     1.2977300998     0.1771206755     -2.6917870047
C     1.1090753556     1.5299149799     -2.2460979664
C     2.0402046544     -1.9329590353     -1.8969745157
C     2.4585951528     -0.5744995551     -2.2831491883
C     1.7659260588     -2.6753622294     0.41316998
C     1.7509327056     -2.0064614989     1.7065925292
C     2.6232081988     -2.2225814732     -0.6037126136
C     1.9315187573     0.348086095     2.4412860494
C     2.552907224     -0.8628222509     1.9295965361
C     1.5359562821     2.4951834782     1.2377929884
C     1.4372633859     2.8691186783     -0.1554261952
C     2.0224334508     2.0454449521     -1.1788083089
C     2.4106460694     1.4787286916     1.6228689667
C     3.3452305768     -0.0870350583     -1.3629688226
C     3.5287615544     -1.1293455407     -0.3178035237
C     3.4708294883     -0.47346675     0.8942861343
C     3.1081170984     1.2025668469     -0.7357069478
C     3.3049718189     0.9788920199     0.6527437923


