50

 C     3.3360083911     -1.4994007292     0.5657083003
C     2.6933746816     -2.2614880362     -0.4242487116
C     2.6358665281     -1.4419415678     -1.6586768713
C     3.5673442091     -0.1720041421     0.0082698016
C     3.0807819741     -0.1186325364     -1.3411280903
C     3.1918123056     0.8080764161     0.9895767589
C     2.695781048     -1.3354443626     1.8066162908
C     2.6624892997     0.1047122319     2.1267640799
C     1.4227344773     -1.8891495217     2.0630651683
C     1.4284285158     -2.8381686033     -0.2123347433
C     0.7320684856     -2.6677669495     1.0551425765
C     1.4164491187     -1.6713163299     -2.2962394167
C     0.6794923365     -2.6484729214     -1.4716680214
C     0.7119295965     -0.5790112151     -2.8660234453
C     2.3125570216     1.0257472939     -1.7902584361
C     1.1787310589     0.7844210222     -2.6294156472
C     2.5259250985     1.9560229263     0.5701738548
C     2.2271973747     2.1590949027     -0.8787684541
C     1.4332838929     2.4901639563     1.3430782599
C     1.4164761774     0.4327724173     2.6700402191
C     0.6784436841     -0.8376015665     2.7719884471
C     0.7327173333     1.656997933     2.2974174409
C     -0.6784994928     -0.8375986795     2.7719757291
C     -0.7320999831     -2.6677636959     1.0551289335
C     -1.4227813594     -1.8891433798     2.0630383998
C     -0.6794761099     -2.6484698636     -1.4716808805
C     -1.4284369026     -2.8381624362     -0.2123615597
C     -0.711878308     -0.5790081015     -2.8660369873
C     -1.4164131175     -1.6713103274     -2.2962659725
C     0.0000277005     1.6317883298     -2.5808706062
C     -1.1786781103     0.7844261576     -2.6294377672
C     1.1533501418     3.0353620073     -0.9522815327
C     0.6821999862     3.3006025447     0.4315614853
C     0.0000228226     2.7808685984     -1.7750102579
C     -0.6821937367     3.3006054728     0.4315486606
C     -1.1533191677     3.0353671371     -0.9523032967
C     -0.7327533046     1.6570010456     2.2974035231
C     -1.4165244389     0.4327785441     2.6700136582
C     -1.433298025     2.4901699578     1.3430511552
C     -2.6958208712     -1.3354325838     1.8065656091
C     -2.6625288498     0.1047237751     2.1267141477
C     -2.6933762838     -2.2614761395     -0.4242991606
C     -2.6358416018     -1.4419299758     -1.658726597
C     -3.3360252455     -1.4993862795     0.5656456028
C     -2.3125191054     1.0257574259     -1.790302078
C     -2.22717136     2.159104485     -0.878810294
C     -2.525927281     1.956033732     0.5701261265
C     -3.1918272418     0.8080902797     0.9895169649
C     -3.0807573392     -0.1186191973     -1.3411861188
C     -3.5673450244     -0.1719884513     0.0082027527


