50

 C     4.6335070236     -0.4407476105     -0.6140993831
C     4.558484591     0.9299861974     -0.5124636701
C     4.2624673934     1.294280974     0.8714202006
C     4.2745119605     -1.0508622878     0.712217171
C     3.9514180714     0.0120204182     1.5753238491
C     3.2831338609     -2.0243215438     0.444654818
C     3.6748119935     -0.9217677171     -1.6101483565
C     2.9614979104     -1.949387931     -1.0173913781
C     3.4365205231     1.3664772222     -1.3709581223
C     2.879249283     0.227902369     -2.0883882378
C     3.058444047     1.9755636692     0.8405085383
C     2.5678734539     2.125242445     -0.5655182909
C     2.6056923775     0.0896804317     2.1229115923
C     2.0898291068     1.4110920922     1.7913646992
C     2.049153849     -2.0659043449     1.1146597855
C     1.6651113681     -0.9807586636     1.9954851936
C     1.5563277083     -2.1007994324     -1.1853432117
C     1.0156727259     -2.4348476618     0.1275548925
C     1.4746854781     0.1235026487     -2.2203260581
C     0.7980497088     -1.1735616313     -1.9417614079
C     1.1862564418     2.1066232126     -0.7819952965
C     0.6333340234     1.2450158576     -1.8058208173
C     0.7391610956     1.6530126372     1.6268406545
C     0.3174931544     2.3291827739     0.3793512313
C     0.2363016469     -0.6748508537     2.111613175
C     -0.2362851058     0.6752953172     2.111479844
C     -0.3174912258     -2.3290979182     0.3798353259
C     -0.7391477941     -1.6526712122     1.6271813511
C     -0.6333466731     -1.2453964715     -1.8055646749
C     -1.1862640812     -2.1067832261     -0.7815544417
C     -0.7980701515     1.1731523686     -1.9419858049
C     -1.4747079213     -0.1239626129     -2.2202961455
C     -1.0156721515     2.4348774698     0.1270644368
C     -1.5563371699     2.1005605587     -1.1857686145
C     -1.6650963128     0.9811777786     1.9952997273
C     -2.0491432384     2.0661397171     1.1142494459
C     -2.0898136931     -1.4107132683     1.7916697039
C     -2.6056714117     -0.0892392651     2.1229485358
C     -2.5678806638     -2.1253521309     -0.56506005
C     -3.0584426385     -1.9753895201     0.8409394689
C     -2.8792644193     -0.2283337551     -2.0883245972
C     -3.4365423681     -1.3667707676     -1.3706557927
C     -2.9615022564     1.9491770801     -1.017774009
C     -3.2831275742     2.0244107882     0.4442570175
C     -3.6748189381     0.9214315379     -1.6103177617
C     -3.9513995737     -0.0116958429     1.5753430895
C     -4.2624657191     -1.2941082646     0.8717189217
C     -4.5584938117     -0.9301027904     -0.5122477404
C     -4.2745054123     1.0510101524     0.7120285828
C     -4.6334974911     0.4406120061     -0.6141593892


