50

 C     3.9266463601     1.2315671527     -0.5771891621
C     4.2435011409     -0.0859192173     -0.0730131723
C     3.5699896216     -0.2257003188     1.2187866545
C     3.0915651851     1.8407425566     0.3806779415
C     2.8704306483     0.9847460473     1.5334418989
C     1.9332141271     2.4902804957     -0.2264496505
C     3.0030987475     1.0707684213     -1.6836012055
C     1.8598607176     1.9648594839     -1.5617681089
C     3.5294424334     -1.0020748911     -0.8632759714
C     2.7503400163     -0.3035273796     -1.9039916076
C     2.8667552191     -1.4804257807     1.320126607
C     2.8425574454     -2.0025738105     -0.0475263771
C     1.692057585     -1.5252743602     2.063131558
C     1.5813435353     0.9639834319     2.1627026309
C     1.0982620504     -0.3117215339     2.6027130085
C     0.7680991388     2.7165620401     0.5173271132
C     0.5806738833     1.9939057296     1.8059359875
C     -0.3892770817     2.9832197564     -0.2928796249
C     0.6055682328     1.6182318251     -2.1131953192
C     -0.49017794     2.3523628224     -1.5866055624
C     1.4447950928     -0.7726397654     -2.2767043407
C     0.3835768439     0.217934929     -2.5790296696
C     1.6851669171     -2.5519421545     -0.5388148199
C     1.0437320856     -2.0461031774     -1.763175589
C     0.6005009686     -2.4061843318     1.6606438654
C     0.603933278     -2.9478247165     0.3668716471
C     -0.312001747     -0.5523545026     2.7590985724
C     -0.6373001748     -1.873896396     2.19323064
C     -0.7514790436     1.7964903686     2.2303205231
C     -1.2191678932     0.486941978     2.671490911
C     -1.6885975483     2.9633700496     0.2783355307
C     -1.866149322     2.392181886     1.524277015
C     -1.8764781344     1.908988496     -1.7688870427
C     -2.6309971966     2.3159994411     -0.6530178497
C     -0.9421634472     -0.2319982148     -2.6837954865
C     -2.1011994356     0.6290227974     -2.3406874839
C     -0.3328298572     -2.4059810959     -1.6968128837
C     -0.6212961756     -3.0050383382     -0.3831382781
C     -1.3026376327     -1.5951340931     -2.3154122606
C     -1.8463001411     -2.0913580519     1.5520327583
C     -1.850731247     -2.7394789845     0.2401001582
C     -2.5559929639     0.2567205744     2.1002464009
C     -2.970501309     1.4261051605     1.4416585558
C     -3.4509367572     1.3832872439     0.0761726036
C     -2.8670655316     -1.0249228663     1.5283879947
C     -3.1128375738     -0.1766127404     -1.7855002762
C     -2.6193291441     -1.567271617     -1.7695822164
C     -2.8921599564     -2.1177631391     -0.5211142175
C     -3.7169064195     0.1253107454     -0.5141148918
C     -3.5305956003     -1.0698619553     0.2915724919


