50

 C     3.1185668046     -1.6273201573     0.0517309396
C     2.6450838336     -1.8855358713     -1.2403442068
C     2.652203128     -0.6378482831     -2.0080678918
C     3.416087893     -0.2152080882     0.1467453774
C     3.1490336572     0.3957968032     -1.143861861
C     2.8847412427     0.3011040173     1.3508437132
C     2.3425524064     -2.0012276193     1.2019122
C     2.2927781661     -0.8340872383     2.0795894888
C     1.1844076586     -2.7675840509     1.009624135
C     1.4191380872     -2.5650709265     -1.4643212605
C     0.7209159311     -3.0756235003     -0.3466083993
C     1.4242686858     -0.5128023593     -2.6840096792
C     0.6850038935     -1.7676973374     -2.4561160046
C     0.7360345342     0.7605141608     -2.7356310096
C     2.5157454573     1.6223696685     -1.175076432
C     1.4309670542     1.8638717712     -2.1120341725
C     2.2609111393     1.6099103582     1.3621946897
C     2.2110486071     2.3307040786     0.0938776785
C     1.1792480179     1.8238130409     2.272447018
C     1.1763041841     -0.6209088837     2.8761121566
C     0.7085960745     0.7213988677     3.0650166167
C     -0.0000793281     -2.5197951878     1.8227258165
C     -0.0000379377     -1.489693309     2.7627509057
C     -0.7211368815     -3.0755724203     -0.3466007667
C     -1.1845924686     -2.7675003653     1.009636651
C     -0.6851549095     -1.7676491499     -2.4561086518
C     -1.4193349108     -2.5649706243     -1.464306157
C     -0.7360097065     0.7605661623     -2.7356232539
C     -1.4243332512     -0.512701717     -2.6839946446
C     -1.4308578297     1.8639729125     -2.1120189612
C     0.6867158801     2.9405321006     -1.5541689929
C     1.1549125402     3.1987446035     -0.1706600964
C     -0.686524486     2.9405806327     -1.554161804
C     0.0001016992     2.5950210634     1.8924845656
C     0.0001201932     3.295812538     0.6832076307
C     -1.1546881843     3.198826196     -0.1706479431
C     -0.7085124384     0.7214489015     3.0650241184
C     -1.1763174388     -0.6208258312     2.8761247143
C     -1.1790950692     1.8238962687     2.2724594897
C     -2.3426809199     -2.0010620367     1.2019370003
C     -2.2928148223     -0.833925049     2.0796135952
C     -2.6452300761     -1.8853487604     -1.2403160461
C     -2.652269292     -0.6376607565     -2.0080396986
C     -3.1186811123     -1.6270997662     0.0517640214
C     -2.515643108     1.6225473571     -1.1750495704
C     -2.2108827391     2.3308603906     0.0939012228
C     -2.2607826438     1.6100700465     1.3622186128
C     -2.8847054173     0.3013077976     1.3508740634
C     -3.1490175335     0.3960192857     -1.1438284839
C     -3.4161012628     -0.2149667342     0.1467815667


