50

 C     -3.6249858111     -1.4712675379     -0.8833483375
C     -3.8699805864     -0.366111905     -0.0057734107
C     -3.394742871     -0.6830161215     1.2891078139
C     -2.8237660746     -2.4449239187     -0.151120997
C     -2.7250831575     -1.9665363025     1.2177016426
C     -1.6115370392     -2.6282864282     -0.8237801934
C     -2.8047766255     -0.9412360466     -1.910278007
C     -1.5972509634     -1.6916556583     -1.9831511452
C     -3.4394182164     0.8769929279     -0.6145049047
C     -2.6902959305     0.5018256782     -1.8098043481
C     -2.9095362114     1.8804992232     0.2166973602
C     -2.5546689542     0.2266574011     2.0282257429
C     -2.3873192974     1.5321733018     1.5795131158
C     -1.4919816628     -1.8591082398     1.8844524075
C     -1.3835486251     -0.503694352     2.4609855533
C     -0.3782132182     -2.8605620158     -0.1006475358
C     -0.3203471034     -2.4842331177     1.331885899
C     0.7924164569     -2.7342987066     -0.8441941874
C     -0.392275622     -1.0956865504     -2.3841419022
C     0.7780483084     -1.8707104622     -2.0613797859
C     -1.4728764785     1.168479189     -2.1681813588
C     -0.281130963     0.3748400021     -2.5283637605
C     -2.0049255111     2.7794238117     -0.3440571195
C     -1.2777215226     2.4583652079     -1.5434943491
C     -1.1236419667     2.2166908125     1.7670517779
C     -1.0020068126     3.141062795     0.6750402213
C     -0.129831422     0.117450622     2.6175273214
C     0.0502786322     1.5358434495     2.2390774058
C     0.9125428984     -2.0709282371     1.8551558197
C     1.0044482459     -0.7723027475     2.5706130051
C     2.1025430275     -2.604012702     -0.2245644418
C     2.1601092897     -2.2771835523     1.1602673535
C     2.0363141708     -1.3359183977     -2.203029448
C     2.9261107025     -1.8672247127     -1.1361260335
C     1.0486173164     0.9505362392     -2.3892704783
C     2.2046300862     0.088978946     -2.3015974896
C     0.0442177633     2.9479943783     -1.3450911257
C     0.2018348525     3.3780248193     0.0633155274
C     1.1818298861     2.2311511468     -1.7102783846
C     1.3705017216     1.9539297193     1.7277110076
C     1.4030774961     2.8154713897     0.5628650685
C     2.137337859     2.3595716507     -0.6001878234
C     2.2897593754     -0.2813536984     2.3972736449
C     3.0635058913     -1.2373854235     1.5947334967
C     2.4900988928     1.05161919     1.8648039522
C     3.7392986058     -0.8236793607     -0.710434533
C     3.2783487676     0.392385529     -1.4086225793
C     3.1848210993     1.4509878741     -0.448471012
C     3.8059553748     -0.4986879611     0.6778846653
C     3.485214926     0.9390508519     0.8520048896


