50

 C     -4.3414208488     0.6544631215     -0.1471074743
C     -4.4625759327     -0.6785800371     -0.4849675198
C     -4.0409093253     -1.4437742956     0.6721122226
C     -3.7741476782     0.8325275629     1.2199492009
C     -3.5397153828     -0.4711846656     1.7169094592
C     -2.6878590175     1.7314028096     1.1077421859
C     -3.4982955296     1.3684929107     -1.0853952445
C     -2.6165608829     2.1636053303     -0.3240156835
C     -3.4877194721     -0.8997486667     -1.5774197693
C     -2.8994246733     0.380457832     -1.9670880314
C     -2.9371096724     -2.1847939124     0.3081462914
C     -2.5697952319     -1.8461844012     -1.1065000516
C     -2.2323958475     -0.836552487     2.1140152479
C     -1.8757519879     -2.0345812574     1.2951796293
C     -1.4369662614     1.4756945671     1.7577658219
C     -1.1999669427     0.1336823984     2.2641884318
C     -0.2611062897     2.2354662663     1.3178108056
C     -1.3769597579     2.476402264     -0.8603498075
C     -0.2606851246     2.7784010576     0.0035316522
C     -1.5085456575     0.4746073513     -2.2981250475
C     -0.8423126424     1.6866174938     -1.9297013235
C     -1.1842515206     -1.8017845533     -1.4362862188
C     -0.6405142822     -0.7101032137     -2.1939331129
C     -0.5826363058     -2.2899071653     0.9449379092
C     -0.2803064221     -2.4681740436     -0.506030979
C     0.1865225548     -0.3686909735     2.3326441829
C     0.4913333617     -1.6871177091     1.7591089412
C     1.0230296096     1.8981181937     1.874852892
C     1.2437636825     0.5447032101     2.4110644028
C     2.2163128908     2.3097248116     1.2614970712
C     0.9436777395     2.6756244011     -0.7814876644
C     0.6076593747     1.8135322273     -1.8913564266
C     2.1917942374     2.5905210658     -0.156805906
C     0.8218287326     -0.5884486804     -2.3142598632
C     1.4646448006     0.7397412131     -2.2349215222
C     1.0345176329     -2.5681731273     -0.8644037785
C     1.5967297436     -1.7039124884     -1.8987502318
C     1.8040114473     -2.0376943916     1.4570874395
C     2.0576017022     -2.7071961115     0.1747079933
C     2.6350790605     0.1721661982     2.1456258206
C     3.2506051432     1.2979603557     1.4817675214
C     2.9407526879     -1.1316230015     1.7011493932
C     3.1940590228     1.8027877103     -0.7778696258
C     2.851191934     0.8479276419     -1.7806654046
C     3.9584798245     1.1002569179     0.2828047924
C     3.0113861455     -1.5859717677     -1.593359046
C     3.2658801955     -2.275123088     -0.317560239
C     3.8781716481     -1.3158555343     0.6086613633
C     3.6187950279     -0.347746657     -1.5235192122
C     4.2501084894     -0.2019636828     -0.1613834882


