50

 C     2.4575425209     -1.859285533     1.6460628502
C     3.0151570876     -1.9240758945     0.3636464334
C     2.0847072098     -2.7140999199     -0.4831917328
C     1.2298986014     -2.6267431978     1.6486761969
C     1.0202733703     -3.2021876455     0.3299724646
C     0.2083264644     -1.8859083767     2.26859636
C     2.1831342057     -0.5838535827     2.2544672356
C     0.7805338311     -0.5913239132     2.6687324609
C     2.7279616305     0.5596695079     1.6824703114
C     3.4182357038     -0.7614988365     -0.324217568
C     3.4604792476     0.4703710026     0.4137491057
C     1.8205645949     -1.9622679875     -1.6409597973
C     2.7138106307     -0.7897791604     -1.6121053584
C     0.4710887281     -1.8793884601     -2.160047492
C     -0.2594107722     -3.2302408526     -0.1972091915
C     -0.4951486581     -2.723166662     -1.5341879794
C     -1.1591903849     -1.9996417042     1.8179918568
C     -1.4125330986     -2.8027626375     0.6199213391
C     -2.0026710798     -0.8982778103     2.076987281
C     -0.0214584919     0.5667002355     2.69125189
C     -1.4503017285     0.3520586599     2.5876503604
C     1.9363562833     1.8036372935     1.688430215
C     0.5710035663     1.8355151317     2.1729786063
C     3.1748535753     1.6623021912     -0.2831672753
C     2.2942725359     2.5308401996     0.5408586712
C     2.2830952191     0.3951617217     -2.1968662112
C     2.647975553     1.6433012309     -1.5795008407
C     0.0010729499     -0.5659189957     -2.6920068811
C     0.8969190543     0.5204359759     -2.6467804681
C     -1.4067432656     -0.2311567576     -2.6246043515
C     -1.895925761     -2.3878419393     -1.5853985366
C     -2.4605431403     -2.466318817     -0.2475997861
C     -2.3294614463     -1.1999530085     -2.1526740907
C     -3.1445670274     -0.5812364452     1.1882510264
C     -3.2950536567     -1.2974798425     -0.0216580687
C     -3.2859398548     -0.5488421424     -1.2389364817
C     -2.2747676827     1.3943824331     2.0925020935
C     -3.2589130711     0.8254899591     1.1538710397
C     -0.303934638     2.7565773945     1.5241929828
C     -1.729172022     2.543007793     1.5397141868
C     1.2952323712     3.1046374086     -0.2996680532
C     1.489196542     2.5109056026     -1.6122913134
C     0.4255298906     1.8592625851     -2.2606526415
C     0.0088549601     3.2407018175     0.1929354968
C     -1.8648034622     1.061527199     -2.1277619737
C     -3.0521995533     0.8425418607     -1.2687627689
C     -3.1727488732     1.5704317767     -0.0619749977
C     -2.2485252258     2.6646777428     0.1871150579
C     -0.938541336     2.0881313232     -1.8456201492
C     -1.1535200976     2.9109820761     -0.6531805135


