50

 C     -4.2982711086     -0.3732318835     0.0924087021
C     -3.8121692842     -1.6234042469     -0.0925872438
C     -3.0053554428     -1.6488633856     -1.333652493
C     -3.8463165443     0.4831843899     -1.0280999703
C     -2.9181842139     -0.3089293884     -1.8686531682
C     -3.3620992649     1.6297226082     -0.4484230441
C     -3.7252007951     0.1762774079     1.3570616024
C     -3.2872172854     1.4566442061     1.0500701011
C     -2.9248555286     -1.9827562465     1.0203497565
C     -2.7746896843     -0.7685808626     1.8817761101
C     -1.8287741977     -2.3156216175     -1.0335403508
C     -1.784948276     -2.5140039375     0.467063062
C     -0.6186847469     -1.9650955065     -1.6689187398
C     -1.6418575462     0.2213038036     -2.2476569785
C     -0.4809573865     -0.6889462072     -2.3208290781
C     -2.1537830011     2.2446831973     -0.8740468315
C     -1.3434260272     1.6275210646     -1.8923126278
C     -2.0226861933     1.9279831202     1.4478378782
C     -1.4890112691     2.7164160615     0.32812967
C     -1.4663224899     -0.3396699821     2.2610107145
C     -1.1016594432     1.0796946047     2.1459447391
C     -0.5225531762     -2.3866785083     1.1309723365
C     -0.3561885366     -1.3211310255     2.1291299287
C     0.5349724749     -2.6124496723     -1.0921823682
C     0.5826269061     -2.8011667438     0.3854416149
C     1.8019622973     -2.3268601983     -1.5207673547
C     0.907252506     -0.1772126487     -2.4780960876
C     2.0454897546     -1.0589614912     -2.1923567506
C     0.0045922967     2.0766789031     -1.947960986
C     1.1323410841     1.2074330625     -2.3256778554
C     -0.162690768     3.0471861068     0.2870412259
C     0.4985249488     2.9651458819     -0.9679400689
C     0.3202123213     1.4715574686     2.1300970108
C     0.7657331033     2.5392006139     1.2968618415
C     0.956981339     -0.9411382676     2.4151819739
C     1.3147310608     0.484493894     2.4970599049
C     1.9375411629     -2.5644202378     0.8134664874
C     2.7397191183     -2.4332565186     -0.3796530301
C     2.1243805478     -1.6503480457     1.8782483392
C     3.25606415     -0.5579032146     -1.6559289649
C     3.6651932714     -1.4149313566     -0.5063764541
C     2.3315714499     1.6953880212     -1.6447100094
C     1.8940997536     2.6770445654     -0.7244568473
C     2.0870270019     2.4912688122     0.6800861
C     3.3545432419     0.7985095536     -1.2239947665
C     2.6650682164     0.6237235434     2.1427325051
C     3.1975886362     -0.6974205746     1.7804737061
C     3.9407115038     -0.5588039265     0.5994254887
C     3.0541363165     1.5536241034     1.1130279015
C     3.8148397462     0.8370997005     0.1379213686


