50

 C     -3.8250846795     -0.3526353865     0.5893646667
C     -3.4518690302     0.9819269848     0.8815061304
C     -3.2074331694     1.6283759808     -0.3591683274
C     -3.5679140017     -0.6312094336     -0.8385620732
C     -3.2217779806     0.5774999085     -1.4325043225
C     -2.638603967     -1.702310819     -0.9132414284
C     -3.052316579     -1.2366772286     1.3638995929
C     -2.3761944231     -2.1357170694     0.4878090116
C     -2.4092781678     0.9660553287     1.9025074545
C     -2.2409173513     -0.4410134052     2.2811080334
C     -1.2749950583     1.8107295853     1.7907404922
C     -2.0718699689     2.3935402769     -0.5345641748
C     -1.1685219506     2.6756840514     0.5788569394
C     -2.0474831817     0.7287784519     -2.2151073451
C     -1.4713913731     2.0065005268     -1.8429747922
C     -1.5381363686     -1.6480233336     -1.8273629069
C     -1.1876797428     -0.3835282218     -2.4927932727
C     -0.4949040134     -2.5997089247     -1.5769793738
C     -1.1169023777     -2.6892901482     0.8582555077
C     -0.3020290488     -3.1825280002     -0.2080918119
C     -0.9899071984     -0.9167785693     2.6099555211
C     -0.4653341142     -2.156423389     2.0241153762
C     -0.0189155745     1.3739913783     2.4409032283
C     0.1040944212     -0.0042836577     2.8198197128
C     1.2050679692     2.0476925356     2.1034459633
C     0.082451379     3.2195378679     0.2019995547
C     1.2347134242     3.0406056057     1.045904192
C     -0.162108004     2.3058820624     -2.0918165496
C     0.5335755813     3.1743865153     -1.1882411336
C     0.2429368139     -0.0883891002     -2.7382141815
C     0.7345441897     1.2427777458     -2.5354148294
C     0.7624883628     -2.4496265544     -2.1671384511
C     1.198549166     -1.1282637946     -2.5609289916
C     1.0806652459     -3.3551948084     -0.0113358587
C     1.7464543834     -3.0068870487     -1.262039996
C     0.9608856905     -2.0776149231     2.067556877
C     1.3233721694     -0.7566034176     2.6003693073
C     1.7474911711     -2.6839991989     1.0679885329
C     2.4133371439     1.3076161416     1.9994786797
C     2.4500063862     -0.0994537873     2.1158092774
C     2.361420409     2.7977878157     0.2051592782
C     1.871756118     2.7269525881     -1.1462789373
C     2.0134882288     1.5085227181     -1.9117211782
C     3.0577692915     1.6910234458     0.7323565996
C     2.4474453433     -0.8741180751     -1.8568655084
C     2.6976427993     -2.042574168     -1.0079730074
C     2.8188261379     -1.8755947757     0.4427112489
C     3.1211442039     -0.6227515355     0.9137335738
C     2.7928114653     0.4139831971     -1.396043935
C     3.29862883     0.5213460619     -0.0099923653


