50

 C     3.8928356647     0.9710610713     -0.0539478214
C     3.8304776817     -0.3210797392     0.6045738898
C     3.5009846802     -1.2626449376     -0.367612377
C     3.3356959853     0.8137964858     -1.4217702231
C     3.153706493     -0.5548320452     -1.6356991221
C     2.2406479064     1.6998656814     -1.6080243158
C     3.0642051372     1.8467359381     0.6122396139
C     2.200373706     2.5044798909     -0.3671452988
C     2.9221809602     -0.1908990603     1.7426449486
C     2.4304974916     1.1750279449     1.766167877
C     2.0131912955     -1.214005898     2.0161795784
C     2.5213675005     -2.271873703     -0.1438495456
C     1.8982978773     -2.3616538234     1.1170844638
C     1.9212795709     -1.061196475     -2.0989049872
C     1.6535270003     -2.284831797     -1.3234147366
C     0.9919560235     1.2488695883     -2.1600695187
C     0.8261164908     -0.1863940996     -2.4307287921
C     -0.2059268401     2.0724924452     -1.890773141
C     1.0260815858     2.9938583027     0.0735011697
C     -0.1283266123     3.0518407601     -0.8222629141
C     1.0929437092     1.4816804828     2.1007094076
C     0.5234347839     2.6412403876     1.424570631
C     0.6687948178     -0.914028337     2.4843731016
C     0.1563950121     0.4155622763     2.5093706023
C     0.5500475615     -2.8729534469     1.2078584266
C     -0.1879804347     -2.0415493078     2.1523658535
C     0.3924958549     -2.8025177944     -1.2374617623
C     -0.1116359054     -3.299769538     0.0411501281
C     -0.5276363632     -0.767566724     -2.432190184
C     -0.7144094628     -2.1383589183     -1.9339271519
C     -1.5027198343     1.5286207787     -2.153931525
C     -1.654742491     0.078563703     -2.3738698315
C     -2.6466635002     1.9651531383     -1.413134719
C     -1.2379065826     3.3040445527     0.0059871027
C     -0.8365572008     2.8432564111     1.3757523613
C     -2.477583611     2.7604219318     -0.2665351122
C     -1.3074918523     0.5992162257     2.3400109575
C     -1.800677376     1.8743055244     1.8185134585
C     -2.886005634     1.9320248084     0.9035630417
C     -1.5652487472     -1.8671013714     2.0201417487
C     -2.1289312737     -0.5313540652     2.0958868003
C     -1.5317688275     -3.1960964814     -0.0303642127
C     -1.9059646628     -2.5348984249     -1.3090422953
C     -2.257122794     -2.5795817783     0.9702601329
C     -2.8869563743     -0.3462879416     -1.7021498751
C     -3.3991355894     0.7778162511     -1.0209994225
C     -3.5024825129     0.7548314703     0.4162826892
C     -3.2256814146     -0.4656464604     1.0990959858
C     -2.9552590567     -1.6098519672     -1.05980897
C     -3.2227188366     -1.6577919158     0.3593308846


