50

 C     -3.5983087997     -1.0627881046     -0.6331501741
C     -3.5654951017     -0.0325290128     0.343119551
C     -3.1239681412     1.1961395038     -0.2444708088
C     -3.0140042566     -0.5566823835     -1.8381568132
C     -2.8036190718     0.8664501275     -1.6476013659
C     -1.8926742051     -1.3590050282     -2.15326
C     -2.8069002835     -2.1432184557     -0.1487732214
C     -1.7798803286     -2.4083793493     -1.0980201217
C     -2.9711727585     -0.5577466238     1.5641579933
C     -2.4674700537     -1.9094937957     1.2396985496
C     -2.2091196074     0.2923201935     2.3341827648
C     -2.2843923922     2.082669083     0.5197712615
C     -1.9426510303     1.6724585055     1.8683505514
C     -1.2984512356     2.854120541     -0.1937352922
C     -1.7138254729     1.4651994052     -2.2613479197
C     -1.0895949512     2.5795238954     -1.6038694428
C     -0.7020745474     -0.7559047199     -2.7149894471
C     -0.660255876     0.6727805815     -2.8736892907
C     0.522841559     -1.4334902927     -2.504140344
C     -0.510589434     -2.8461004975     -0.6465985441
C     0.6100225042     -2.5580066488     -1.5219455327
C     -1.2099962686     -2.297339071     1.6815338807
C     -0.255632465     -2.9024354084     0.7712932857
C     -0.9895239223     -0.2033983365     2.9820745778
C     -0.4627489512     -1.4535808012     2.6165528603
C     -0.6975791824     2.0445928953     2.4064584932
C     -0.0938579872     0.8910450479     3.0704245703
C     0.0004870209     3.129983504     0.3548922705
C     0.3148182241     2.7110452381     1.6648865402
C     0.2777827381     2.6127532491     -1.9332558592
C     0.580161754     1.3850751438     -2.6333853586
C     0.9915606618     2.9491831321     -0.7314986834
C     1.7836937444     -0.7469522851     -2.4949423372
C     1.8128233066     0.6997387147     -2.3901567223
C     1.9043270245     -2.6217929425     -1.0491903616
C     2.676214531     -1.5473754127     -1.6970314705
C     1.0608338527     -2.5748909811     1.2672656161
C     0.9437247681     -1.6055747092     2.3524013984
C     2.1625630445     -2.5474335668     0.3847658884
C     1.2719182161     0.8070623074     2.7403784381
C     1.5585724607     1.998806817     1.91031699
C     1.8433420653     -0.4769764912     2.4171589743
C     2.1945678276     2.3344959966     -0.4731973654
C     2.7020744444     1.2780104969     -1.3892256079
C     2.511605199     1.9105056249     0.8937982279
C     3.50369521     -0.9689691143     -0.756230942
C     3.1409690856     -1.5436744005     0.5701153906
C     2.9646254158     -0.4793111868     1.5061909822
C     3.5334351985     0.4347670231     -0.6170869616
C     3.2771224674     0.7243225925     0.7891569316


