50

 C     3.278823532     1.0840548391     -0.8323183881
C     2.4282311992     1.8202959918     -1.6121909285
C     1.7643752814     2.8196067192     -0.7650595066
C     3.1431860971     1.5819468272     0.5768088738
C     2.0658152325     2.5077025969     0.6168217543
C     3.1214704443     0.4595491599     1.3802747658
C     3.2198453942     -0.3512126946     -0.8373618592
C     3.294824884     -0.7331049568     0.5429836652
C     2.3194252678     -1.0428416145     -1.720983582
C     1.4366774363     1.1956062721     -2.4517695075
C     1.4109924306     -0.2356419439     -2.5894036482
C     0.4601517131     2.931451811     -1.2097412109
C     0.2232745226     1.9637930398     -2.3065594437
C     -0.5489432138     3.1509769008     -0.2355665962
C     0.9861204559     2.3275845211     1.5812557463
C     -0.2891909173     2.8174697384     1.1787466339
C     2.1026067364     0.203117446     2.3501025021
C     1.0244625715     1.1573059061     2.499719882
C     2.523463238     -1.7653610957     1.0991499218
C     1.8363456815     -1.2257029982     2.2877802487
C     1.8219982638     -2.3024116723     -1.2126491578
C     1.8416331042     -2.6111531015     0.2194250688
C     0.6110715068     -2.8398840046     -1.7110657607
C     0.1315516903     -0.7825758109     -2.9456435795
C     -0.1977073021     -2.1393253132     -2.6060216474
C     -1.0615552102     1.3687132495     -2.4596851282
C     -1.0876535814     -0.0077023066     -2.8289481261
C     -1.8544344574     2.7862912938     -0.559114962
C     -2.1487060963     1.8813516165     -1.6351859727
C     -1.5338835106     2.28213117     1.7180655041
C     -2.5273221816     2.3404352127     0.672964559
C     -0.221942766     0.6193655022     2.9687727944
C     -1.5094296547     1.1583118537     2.5420097734
C     0.5772454952     -1.7163540689     2.6072619902
C     -0.3866173625     -0.7904495907     3.0910457457
C     0.5298853747     -3.1512349012     0.5890598056
C     -0.2140652859     -3.35000829     -0.6086473057
C     -0.1120223043     -2.6713659302     1.7361468899
C     -1.5449434252     -2.184611604     -2.0942067806
C     -2.0966716666     -0.9098116168     -2.2471152774
C     -1.5086229556     -2.8127466521     -0.7747864471
C     -3.0996678261     0.9622103205     -1.0907254459
C     -3.2913159412     1.2424554541     0.3496535875
C     -2.9753199188     -0.4193942595     -1.2462824192
C     -2.3988178337     0.0181359086     2.248111203
C     -1.6712773862     -1.1587885861     2.5606589901
C     -1.50422355     -2.2347710683     1.6414232738
C     -2.1877119033     -2.1957039757     0.3585457828
C     -3.1730183202     0.0123126848     1.0700142991
C     -3.0084149824     -1.0600229796     0.0942294199


