50

 C     -3.7042495705     0.8860755829     -0.1953155198
C     -3.0702111945     1.9010286478     0.4689532083
C     -2.2122752002     2.6362005659     -0.4773370905
C     -3.1492987481     0.8867425317     -1.5849715038
C     -2.1171339108     1.87197721     -1.6929847318
C     -2.8605765706     -0.421059795     -1.8879392055
C     -3.6677790509     -0.4706800779     0.3253686836
C     -3.2843677802     -1.3045277499     -0.7742507413
C     -3.0217436129     -0.6974327391     1.5737552723
C     -2.265998664     1.6631778268     1.6625750239
C     -2.2427994474     0.3895028724     2.2104591667
C     -1.0624199125     3.0357782435     0.1855035668
C     -1.0208384542     2.394358886     1.5145222642
C     0.1174389895     3.1407802055     -0.5806783372
C     -0.8004290254     1.5090481532     -2.2100553487
C     0.2797357607     2.3077960107     -1.7743409406
C     -1.5730350519     -0.8448130878     -2.3617645596
C     -0.4992936398     0.0879271743     -2.5338506935
C     -2.3429906214     -2.3425563707     -0.6634440828
C     -1.3482412884     -2.137960005     -1.7418199522
C     -2.2453419442     -1.875842875     1.7220168216
C     -1.8728310967     -2.7002561879     0.6299018443
C     -0.95912912     -0.1661247351     2.6649132593
C     -1.0219441239     -1.5625316315     2.4539727747
C     0.2196869371     1.9061402359     1.9976904414
C     0.2909008845     0.5154089231     2.506147692
C     1.3247607691     3.1262393844     0.1019154832
C     1.405657076     2.4893906485     1.4031564095
C     1.6764862968     1.8768148836     -1.8129858582
C     2.3576997391     2.5797378357     -0.7609116324
C     0.8869732558     -0.4081542637     -2.4337646905
C     2.0144064278     0.5104662463     -2.1147338225
C     -0.0649407755     -2.5815806456     -1.5924195186
C     1.0454200322     -1.7979074586     -2.0992860691
C     -0.4634945266     -3.0526321989     0.8035357179
C     0.0689488976     -2.2924619296     1.9421577635
C     0.3541896967     -3.1973043403     -0.3083828637
C     1.5047277865     -0.285620097     2.2865507753
C     1.3798489198     -1.7164837274     1.9308241181
C     2.6109346945     1.7676537265     1.4223215497
C     3.2576411     1.9002472039     0.065258616
C     2.6868180674     0.415023492     1.8208227154
C     3.1984370521     -0.0213171182     -1.4400202761
C     3.7522615509     0.679763153     -0.3037108171
C     3.5990051643     -0.2280844079     0.8777133089
C     2.203668606     -2.2455939988     -1.3805419572
C     1.7331946424     -2.9483467396     -0.1668002198
C     2.2884828801     -2.2843547984     0.9532419938
C     3.2329322016     -1.4043033476     -1.0565199291
C     3.3811099018     -1.4893563168     0.425553891


