50

 C     3.9915181731     0.2727858328     0.0796139642
C     3.3947669051     0.6629639001     1.3768391655
C     2.8109283874     1.8990008873     1.2138706119
C     3.4841482183     1.1298395142     -0.9224780619
C     2.8884507503     2.2381775585     -0.2639691057
C     2.6616295314     0.3124709344     -1.8346441666
C     3.6104635402     -1.0570070799     -0.1889026116
C     2.9127517949     -1.0756188953     -1.4641516874
C     2.593102947     -0.4337608373     1.8565801397
C     2.8839933915     -1.551537828     0.9537327874
C     1.2408139096     -0.228841734     2.2965911738
C     1.4897966041     2.1446412176     1.6479839261
C     0.6780402976     1.1314333885     2.2480608352
C     1.65734808     2.7025661858     -0.6396656326
C     0.8915779218     2.9828984904     0.6136611772
C     1.344055523     0.7177226533     -2.1775310988
C     0.8931493942     2.0521102854     -1.721875615
C     0.2928215816     -0.3183490556     -2.4316447255
C     1.9215096378     -2.0283620734     -1.6461649852
C     0.6350900142     -1.6682151971     -2.2201171758
C     1.93531293     -2.5589913658     0.7498355765
C     1.6441331353     -2.9461411491     -0.5765625574
C     0.3069609846     -1.3818510492     2.2169204959
C     0.6747617561     -2.5526305863     1.4969163742
C     -1.1143362106     -1.1258474935     2.3504934846
C     -0.7922483829     1.3587900791     2.1868764957
C     -1.6572652866     0.2502626012     2.3115232461
C     -0.4258060078     3.2470478956     0.5606843475
C     -1.3243258465     2.5091009282     1.4676709807
C     -0.4567225367     2.3992753413     -1.7767137044
C     -1.0418243876     3.3015833705     -0.7665208829
C     -1.1532618622     0.0568227973     -2.3788721246
C     -1.4986253336     1.431404755     -2.1822539118
C     -2.1305605989     -0.9037867148     -1.9566777605
C     -0.365720549     -2.6205905353     -1.685218003
C     0.2488783332     -3.3265697865     -0.6264026655
C     -0.3154677857     -3.2696375121     0.6885317996
C     -1.7119704976     -2.2485825587     -1.547997671
C     -2.0655094104     -1.9943099527     1.7936983478
C     -1.6752300814     -2.9699729663     0.8070708903
C     -2.4114281914     -2.6246161059     -0.3759682709
C     -2.9423374812     0.1968983251     1.6304319692
C     -3.2298190787     -0.5240225015     -1.0885960593
C     -3.1596402349     -1.1747288507     1.262499463
C     -3.3431516667     -1.5338329608     -0.0653762371
C     -2.5639641406     2.4224123715     0.7806717018
C     -2.3401957254     2.8908718066     -0.5823102959
C     -2.6757964307     1.7844859926     -1.4689311849
C     -3.2952435965     1.2029089622     0.7189245596
C     -3.3955494185     0.8193307151     -0.7201343182


