50

 C     -3.6606989208     0.7049149442     0.7647277099
C     -2.8359305372     1.3168829098     1.6877474407
C     -2.141993229     2.4356064038     1.0533156579
C     -3.4278506014     1.3884026304     -0.5288367328
C     -2.3793908593     2.371144273     -0.3579964684
C     -3.3076983576     0.4301271735     -1.4993678704
C     -3.5973434741     -0.7299462025     0.5375081673
C     -3.5666408871     -0.9047683534     -0.9004149721
C     -2.6877596724     -1.4769231143     1.3080795323
C     -1.8517664616     0.5833832306     2.4567093789
C     -1.8171858339     -0.8086373331     2.3025143527
C     -0.8431743332     2.5180686325     1.5943497586
C     -0.6069532472     1.3374397282     2.4432065858
C     0.1660989607     2.9820288109     0.7728953326
C     -1.2369332724     2.3722313515     -1.2258667479
C     -0.0656561403     2.9690827536     -0.6680844763
C     -2.1215351588     0.3362335567     -2.3464976816
C     -1.0441991211     1.2565437702     -2.2028829793
C     -2.6913413959     -1.7894049508     -1.4920964623
C     -1.8273621487     -1.0496911262     -2.4508267423
C     -1.8757859243     -2.5136783442     0.6816165472
C     -1.8535752315     -2.6532108769     -0.7318191909
C     -0.5459939278     -1.4633934474     2.3344784823
C     -0.625719161     -2.5937346513     1.3886761743
C     0.6696232122     0.7264972022     2.4477177841
C     0.6809808251     -0.7539321845     2.4997018584
C     1.5431152798     2.6141862     1.0131675234
C     1.8212659725     1.4645152835     1.840391125
C     1.1913689226     2.7623365951     -1.257837056
C     2.2240020302     2.7894867579     -0.2450673612
C     0.3181394158     0.7598109327     -2.4542934818
C     1.411090391     1.6422420713     -2.1455593571
C     -0.5283392524     -1.5565508498     -2.3711303591
C     -0.5560361581     -2.6769270423     -1.4080134347
C     0.6072134051     -0.6852959657     -2.4405805609
C     0.5233057995     -3.0461945131     0.7470422675
C     0.5844007657     -2.9829377006     -0.7222884176
C     1.8833187669     -1.4444974463     2.0845648693
C     1.7758724165     -2.6004182464     1.212927055
C     3.0092758792     0.7064531394     1.4985434814
C     3.0072010843     -0.7096437842     1.6633693799
C     3.2084425046     1.8765274638     -0.6401950917
C     2.6883712918     1.1256106317     -1.837169195
C     3.698911378     0.9528969075     0.2450300687
C     1.8916743274     -1.2044411155     -1.9324829368
C     1.8655777914     -2.3829690539     -1.0862698007
C     2.6691376434     -2.4230410181     0.0965620749
C     3.5427123724     -1.3594972937     0.4287721083
C     2.9542455994     -0.2529292388     -1.6834076597
C     3.7615162715     -0.3599895011     -0.4746276798


