50

 C     -3.4942639485     -1.574469052     -1.1755198851
C     -3.4958458669     -0.1557886308     -1.5571863407
C     -3.9101075387     0.607725676     -0.4627788365
C     -3.4863558653     -1.5796529226     0.2897088625
C     -3.7707680921     -0.3015030179     0.7445628806
C     -2.2694166186     -2.2226689088     0.7640510263
C     -2.2544111912     -2.0628887059     -1.5441708923
C     -1.5647241161     -2.6550826006     -0.410852688
C     -2.2566655074     0.177497144     -2.2400595953
C     -1.4879087864     -1.0447541343     -2.278596449
C     -1.5656912134     1.4093381976     -1.9730054766
C     -3.2152907604     1.7740693257     -0.164875963
C     -2.1219432945     2.2656759874     -0.9502193682
C     -2.9249444058     0.3658206565     1.7017646065
C     -2.7549212834     1.7077002007     1.2191933727
C     -1.5026732999     -1.6756445184     1.8534068898
C     -1.791807249     -0.3016769454     2.2999493111
C     -0.1640863026     -2.1374519983     1.9229454172
C     -0.1694972917     -2.8026599996     -0.4463714104
C     0.4485864668     -2.8661611771     0.8359436426
C     -0.0777107996     -1.0806533971     -2.2828470871
C     0.5938459439     -2.1834602095     -1.5596335914
C     -0.1199250577     1.4409479252     -2.2167481635
C     0.6152973955     0.1896628621     -2.5197309
C     0.6300367432     2.471784816     -1.5696118266
C     -1.2021759754     2.8897632276     -0.0094139025
C     -1.557325995     2.4332414818     1.3445143864
C     0.1153936813     3.0416808424     -0.3328638436
C     -0.6614457099     0.5185022567     2.6462885349
C     -0.5372174067     1.8938856848     2.138193592
C     0.9237225179     -1.3498320288     2.5310938602
C     0.6690126157     0.0188036313     2.7505687702
C     1.8676463567     -2.7244909909     0.9654825428
C     2.1678968404     -1.7449631532     2.0109147334
C     1.9954194386     -2.1097592012     -1.4030446999
C     2.6395522287     -2.4465098442     -0.1366138887
C     2.0440568713     0.1820681271     -2.4265489927
C     2.6854373243     -0.9627135116     -1.8878474457
C     2.0473587738     2.3872902723     -1.398519044
C     2.7637184535     1.3184413406     -1.8747577215
C     1.1815376595     2.8667449341     0.686492912
C     0.84775724     2.1699352441     1.8745799716
C     1.6300383937     1.0141782207     2.2480639464
C     2.3775343192     2.5671403181     0.0278649542
C     3.1102552036     -0.8031103651     1.4700682013
C     3.5783269175     -1.3611795939     0.2264700543
C     3.698801577     -0.5346109057     -0.8896289796
C     3.6714329438     0.8560975158     -0.8105363899
C     2.8282912856     0.6350063458     1.5522801511
C     3.2261663844     1.4786845783     0.4175817615


