50

 C     4.2908437756     0.2966651597     -0.9192090146
C     4.3313375996     -0.9136192442     -0.1967153967
C     4.0833044612     -0.6401858787     1.1909072086
C     3.837131012     1.3609756226     0.0218329023
C     3.6852880427     0.8036443988     1.2973093409
C     2.7006224518     2.011966472     -0.5472812375
C     3.2365039724     0.1673714453     -1.8651051835
C     2.3244476053     1.2410642062     -1.7421289942
C     3.339621223     -1.8617049981     -0.6975744083
C     2.6278139243     -1.1756300074     -1.7248798097
C     2.9699810756     -1.3782956488     1.5765380892
C     2.5365757128     -2.2456717865     0.4625636901
C     2.4010070335     0.8622246743     1.9450867626
C     1.9629763625     -0.5042589004     2.1846525215
C     1.6306140867     2.4467709863     0.2672210429
C     1.4038150689     1.7956611594     1.5550965268
C     0.4728028665     2.8353424546     -0.465091876
C     0.9384919164     1.1016044316     -2.1282982945
C     0.0940065952     2.1173992433     -1.6953023855
C     1.2176847436     -1.3416753461     -1.874245193
C     0.3464005459     -0.2425185507     -2.2821532047
C     1.1942625433     -2.485095477     0.3281473875
C     0.6062805071     -2.3490335885     -1.0267131646
C     0.6096359902     -0.8508915129     2.1555538375
C     0.2657987745     -2.0772093358     1.4214215389
C     0.0166204453     1.5372721602     1.9621782641
C     -0.414953113     0.1850908972     2.2644970747
C     -0.6993057082     3.0975117196     0.2052107882
C     -0.9863421145     2.4592502327     1.4806759835
C     -1.3632127856     2.0317051939     -1.7441603589
C     -1.8464282937     2.8566392564     -0.6762428304
C     -1.1033275661     -0.392200544     -2.2609747533
C     -2.0004102973     0.7890450273     -2.03890779
C     -0.7411183456     -2.5757382263     -1.1607943533
C     -1.6054926002     -1.6885954116     -1.9019613393
C     -1.0573383376     -2.4050663898     1.2819339445
C     -1.511084359     -2.9825917195     0.0207961562
C     -1.8421131792     -0.1973898389     2.1592946614
C     -2.152614489     -1.5507184187     1.7792054702
C     -2.3505362393     2.1278011016     1.4791358492
C     -2.8995827158     2.447686669     0.1257102816
C     -2.8229867794     0.8282988775     1.8165912084
C     -3.3023444816     0.5696130756     -1.4098973076
C     -3.6886662903     1.3798366809     -0.2855026898
C     -3.8901268765     0.4943149626     0.8794034408
C     -2.9519774822     -1.8797270065     -1.3668316634
C     -2.845454152     -2.696813464     -0.1573447733
C     -3.2944996998     -1.8524340672     0.9587886127
C     -3.7105436659     -0.7662021981     -1.0602976472
C     -4.043408764     -0.7914895489     0.4078600847


