50

 C     3.8315950298     1.246454147     -0.0246688439
C     3.7855915747     0.1464800732     0.9347269434
C     3.6520314748     -1.0249693069     0.1997200333
C     3.446586019     0.6996448739     -1.3554263631
C     3.4318692528     -0.676871886     -1.243243324
C     2.2698166726     1.3927777433     -1.8301053603
C     2.8855954768     2.1717237641     0.3287882826
C     2.0558510954     2.4553417861     -0.8483203204
C     2.7595533072     0.461745311     1.9190887832
C     2.1963477975     1.7570718293     1.5784243536
C     1.8669094931     -0.5390269862     2.3228267606
C     2.7014453374     -2.0311904037     0.5417411803
C     1.898012863     -1.8595193286     1.6882927116
C     2.3220595388     -1.4329137936     -1.7064817841
C     2.0434455116     -2.4519130798     -0.6938106387
C     1.1362130026     0.6873854045     -2.3448731087
C     1.2101174991     -0.7801007328     -2.3653101295
C     -0.2035145778     1.3397229113     -2.2536309394
C     0.8073773952     2.9113534854     -0.6278725525
C     -0.272445248     2.5475164021     -1.5195488838
C     0.8306219195     2.0489748822     1.7524804048
C     0.2407456352     2.9486836495     0.7576524762
C     0.4850833256     -0.2178005086     2.6206567848
C     -0.0816223347     1.0609166009     2.3660100024
C     0.5544841573     -2.3939942392     1.7055245024
C     -0.3011875692     -1.427895481     2.406308849
C     0.7938478504     -3.0418433638     -0.6424079022
C     0.0402920583     -3.0976021327     0.614091341
C     -0.0174682803     -1.5170195142     -2.3939838604
C     -0.1390052354     -2.7185468802     -1.6690547452
C     -1.4652954143     0.5394216534     -2.3290974219
C     -1.3459564741     -0.8637599789     -2.3939828771
C     -2.7010379007     1.0584776843     -1.7090709299
C     -1.4648830484     2.9472638078     -0.8193631809
C     -1.1128850094     3.0462361537     0.6266416015
C     -2.6393897827     2.289212714     -0.932693441
C     -1.5566407044     1.155957281     2.1711984294
C     -2.071931144     2.2366842317     1.3641684005
C     -3.1399652917     2.0014449818     0.4443137512
C     -1.6519568751     -1.3625804891     2.1762309883
C     -2.3301634125     -0.0677028721     2.1689708559
C     -1.3792427065     -2.9746684306     0.2855843343
C     -1.4826094385     -2.78360791     -1.1163936802
C     -2.2654475647     -1.735385073     -1.6628481216
C     -2.2464101135     -2.2227576261     1.1316199255
C     -3.5645325204     0.1979204414     -0.9968422444
C     -3.7763597203     0.7717090937     0.3763397302
C     -3.4535212395     -0.2218893287     1.2986152922
C     -3.2931496352     -1.185136701     -0.8575083628
C     -3.2888720465     -1.4914278596     0.5565232977


