50

 C     -3.6736298711     -1.1532369799     -1.2699651576
C     -4.2116331556     -0.2738152763     -0.2951965541
C     -3.7046842954     1.0689136221     -0.5695075589
C     -2.8513542814     -0.4303767422     -2.1616748778
C     -2.827524542     0.9690497976     -1.6806883433
C     -1.6083864174     -1.1216962535     -2.2367246205
C     -2.9058499198     -2.230359492     -0.6493337
C     -1.6639403784     -2.3074549372     -1.3184693309
C     -3.6548864576     -0.6737999444     0.9414473542
C     -2.9150097293     -1.9457173686     0.7669062929
C     -3.1372636851     1.5757235008     0.6508583258
C     -3.016539317     0.4499704955     1.587763988
C     -2.0951678567     2.4966730934     0.5705896968
C     -1.5789335108     1.6870138726     -1.7078176897
C     -1.3464059544     2.6324554238     -0.6724855078
C     -0.3853809661     -0.4486916513     -2.4242734781
C     -0.395891424     1.029407193     -2.306665425
C     0.858202499     -1.2010634586     -2.1935049612
C     -0.4804416838     -2.6357951227     -0.613108558
C     0.8212287248     -2.2956285132     -1.2091726341
C     -1.7284085563     -2.0794089941     1.4598363401
C     -0.5800794528     -2.6681349853     0.8139318674
C     -1.8041725717     0.2804339089     2.3478173352
C     -1.2081000709     -1.0391074581     2.3793525061
C     -1.1181939448     2.5201659052     1.6116512901
C     -0.8992377282     1.3916241956     2.4391365283
C     0.025157975     3.0303425528     -0.3164095216
C     0.1502675624     2.9724172265     1.1009473925
C     0.8511838816     1.6695017561     -2.1732289667
C     1.0966529441     2.6395692493     -1.0943831765
C     2.0892737639     -0.5111578046     -2.3675743883
C     2.0459373926     0.9351163777     -2.3344989456
C     3.2792264592     -0.9047056191     -1.6754933379
C     1.9764503328     -2.53908664     -0.4225583478
C     3.2322089966     -1.9043831439     -0.7144028939
C     0.566204994     -2.3313811298     1.5952823737
C     0.1889893236     -1.2007474879     2.4682990814
C     1.815130316     -2.4218244847     1.0439026683
C     0.5562742422     1.2073006053     2.5073858951
C     1.2045012917     2.2223930118     1.6840107571
C     1.1218793254     -0.0809870653     2.5787777757
C     2.3680007607     2.2911496613     -0.4802670776
C     3.0331531894     1.417845682     -1.4075942086
C     3.8213180374     0.3296673125     -0.9962373343
C     2.3950064211     1.9421436406     0.9299681062
C     3.8242669613     -1.3697060431     0.5339967773
C     2.8693841482     -1.5468030343     1.5211579694
C     2.4615510732     -0.2532800824     2.0865489003
C     4.0093331078     0.0544173335     0.3590132102
C     3.1303330465     0.7550562948     1.3126551639


