50

 C     -3.6027946881     -1.4619569044     -0.827955862
C     -3.9273739515     -0.156168528     -0.2877204249
C     -3.6455694711     -0.1808981765     1.0813926069
C     -2.9777951685     -2.2674862744     0.2160885244
C     -3.0004607904     -1.4972981088     1.3853290358
C     -1.6994438224     -2.7025715677     -0.249064732
C     -2.6559350784     -1.2655434967     -1.8350527569
C     -1.5044720812     -2.0846468007     -1.5768692332
C     -3.2875049316     0.8587819167     -1.1110163008
C     -2.4537795778     0.163296606     -2.0852467921
C     -2.77222556     2.0051863833     -0.4747465609
C     -2.8544529247     0.8388021563     1.6920408245
C     -2.536345278     2.0050860899     0.9756996413
C     -1.8265606214     -1.2550034884     2.1505242095
C     -1.7928219134     0.1697565654     2.4598716065
C     -0.5763624718     -2.7102026974     0.6096391812
C     -0.5975906983     -1.9430044357     1.8614437161
C     0.6799855651     -2.8652446733     -0.0738361076
C     -0.2285979804     -1.7019109884     -2.0543547296
C     0.8653976152     -2.3635779249     -1.4470920092
C     -1.165900051     0.6421159689     -2.4449047496
C     -0.0347072657     -0.3292768754     -2.5886160792
C     -1.6567005263     2.640788369     -1.0747401674
C     -0.8556759365     1.9910335271     -2.0446487209
C     -1.2464729541     2.6635880226     1.195664502
C     -0.7720879666     3.1709513089     -0.0480689097
C     -0.5774324441     0.7968998759     2.6680797991
C     -0.2925094889     2.0828227809     2.056317646
C     0.6589725289     -1.3475982485     2.3172909719
C     0.6493943527     0.0315213759     2.712079102
C     1.8794356688     -2.6969399752     0.5904830439
C     1.9083189904     -1.8630728856     1.7925984394
C     2.2256813445     -1.9256724321     -1.5812469772
C     2.9138861142     -2.2647892869     -0.3469904522
C     1.2808990249     0.1478964446     -2.6043280908
C     2.4395984767     -0.6562128897     -2.1718019417
C     0.5186506874     2.3563909148     -1.7574022756
C     0.5718901918     3.0215095454     -0.4507376531
C     1.5541848416     1.5430509234     -2.1867542818
C     1.1233148324     2.1193423019     1.7548003096
C     1.7177744937     0.9201604359     2.3198493491
C     1.585243905     2.6056223218     0.4824897316
C     3.0281491086     -1.0298885664     1.6432954208
C     3.6661863651     -1.2954938605     0.3086252021
C     2.9149183603     0.3880175814     1.7977390104
C     3.3853601011     0.2309217863     -1.5446214248
C     2.75350027     1.5411714853     -1.4474018963
C     2.7754693277     2.0020433436     -0.0825030089
C     3.9687990411     -0.0624159706     -0.2978974028
C     3.476563435     0.9901170249     0.6242776669


