50

 C     3.3679282333     -1.4432544474     0.2166020322
C     2.9561467143     -1.2386812788     1.5504876365
C     2.9463191886     0.2072397958     1.7691455834
C     3.5409529677     -0.1194813104     -0.420919985
C     3.2065205831     0.8865338314     0.5272484789
C     2.9507538576     -0.1638336982     -1.7241157801
C     2.633062339     -2.2427030025     -0.6472319363
C     2.4198086827     -1.499742563     -1.9021089227
C     1.3937353688     -2.8092779529     -0.2345662452
C     1.72024882     -1.7438535224     2.0046138185
C     0.9308702332     -2.6016032255     1.1312623648
C     1.8471080599     0.5440533972     2.5683451328
C     1.0543262123     -0.6661039681     2.7720680778
C     1.1976739776     1.7831303321     2.3354871404
C     2.3857101389     2.0285758508     0.1332508343
C     1.4633576188     2.5412818592     1.0869221201
C     2.2022562351     0.9312216875     -2.1660130375
C     2.0185420282     2.1065034391     -1.2695206764
C     0.9742606222     0.716281379     -2.8806132945
C     1.1048255611     -1.6955235764     -2.3076485866
C     0.4641032959     -2.5996947589     -1.324309406
C     0.3476710794     -0.5981184999     -2.8867243774
C     -0.9307305676     -2.6025065053     -1.1292978547
C     -0.4639645999     -2.5987190813     1.3262715685
C     -1.3935846966     -2.8091744544     0.2366876845
C     -0.3476393074     -0.5959579264     2.8871748413
C     -1.1047346256     -1.6938399539     2.3089283265
C     -0.1598262733     1.8760809375     2.6404162657
C     -0.9742980861     0.7184038084     2.8800720034
C     0.1827620579     3.104847161     0.6752309319
C     -0.8044721768     2.6984892035     1.6320795591
C     0.8043279055     2.6972996681     -1.6341163204
C     0.1597260311     1.8740963287     -2.6418314646
C     -0.1829283738     3.1043266893     -0.6775743522
C     -1.1977687548     1.7813027277     -2.3368327916
C     -1.4634935617     2.5403830125     -1.0888399774
C     -1.0542898657     -0.6682531262     -2.7715651825
C     -1.7201552006     -1.7454579131     -2.0032967129
C     -1.8471374632     0.5420161796     -2.5687557434
C     -2.9560800362     -1.240009525     -1.5495526878
C     -2.9463297671     0.2057467079     -1.769302449
C     -2.6329422108     -2.2423534739     0.6489254851
C     -2.4197290883     -1.4984354951     1.9032410612
C     -3.3678506576     -1.4435969512     -0.2155122842
C     -2.2023067254     0.9327390748     2.1653093146
C     -2.0186551514     2.1073534189     1.2679304557
C     -2.3858185578     2.0283474251     -0.13478231
C     -3.2065680727     0.8859643005     -0.5279174448
C     -2.9507447702     -0.1626896381     1.7242399397
C     -3.5409462215     -0.1193523677     0.4210091664


