50

 C     -2.8957916026     -2.4310152639     0.3347706256
C     -2.6835302607     -1.7305469735     1.5474462186
C     -3.0787850343     -0.3557346533     1.3911791168
C     -3.2346530532     -1.4810688057     -0.6591971016
C     -3.535694371     -0.2293997006     0.0064680867
C     -2.2279522828     -1.5242713175     -1.6798448113
C     -1.6761748757     -3.114400199     -0.0414707169
C     -1.34004581     -2.6532173735     -1.3627324065
C     -1.3542100466     -2.0807200407     1.9982731659
C     -0.7190784478     -2.9780154915     0.9879956605
C     -0.5729734169     -1.0985614203     2.5559245297
C     -2.2592434234     0.6938076919     1.9470955839
C     -1.0268538296     0.2973294327     2.5813943141
C     -2.2614242355     1.9740239004     1.2925596972
C     -3.2783507902     0.9327159181     -0.6919352848
C     -2.9442345837     2.1262877     0.0289454573
C     -1.6924947395     -0.3048259939     -2.24040358
C     -2.4008180815     0.8934466226     -1.8970211673
C     -0.2584206605     -0.2168662919     -2.5646113826
C     -0.0113462086     -2.5687839015     -1.6893308107
C     0.5116430514     -1.418208188     -2.4520538328
C     0.6776100103     -2.8668185737     0.6774889703
C     1.004875702     -2.9350928553     -0.7184405092
C     0.8786647865     -1.11897042     2.4278710847
C     1.5451964142     -2.020449072     1.5387489012
C     0.1480514283     1.1055076535     2.5453124494
C     1.3193618598     0.237799319     2.5951903751
C     -1.0483360092     2.7752675043     1.2142080836
C     0.1693366883     2.3474351428     1.7939343316
C     -2.1726711686     2.9700302792     -0.8175625789
C     -1.7235121247     2.1301407869     -1.9300567496
C     -1.0189594486     3.345774899     -0.1307716672
C     0.4752866816     1.050603878     -2.389107837
C     -0.2987026739     2.1929126055     -2.0525251651
C     0.1425657725     3.0894552502     -0.9635603554
C     1.916125359     1.0551077636     -1.990463036
C     1.8956042439     -1.3824841967     -2.2495793678
C     2.2230013968     -2.3648413986     -1.1965584683
C     2.6379206587     -0.1915934381     -2.0054250349
C     2.8392645273     -1.5919733334     1.0349318615
C     3.1638349859     -1.8152281314     -0.3692343006
C     3.5941720013     -0.5269495348     -0.9623595989
C     2.5490492095     0.6523649082     2.0503760716
C     3.3346328812     -0.2999275714     1.3500276585
C     3.7906739532     0.3482613478     0.086674793
C     1.4059604854     2.654290335     1.0916033419
C     1.3448963524     2.8763560864     -0.3616952192
C     2.3387227297     2.013797533     -0.9967021009
C     2.5584948702     1.8918396674     1.2996486166
C     3.2493111299     1.6454059143     0.034573088


