50

 C     -4.4947940943     0.231703202     0.6273335995
C     -4.4851032425     -0.034804142     -0.8059317202
C     -3.9413367691     -1.2877744819     -0.9915426501
C     -3.7619355272     -0.9036552219     1.2731296396
C     -3.4948040284     -1.8778010946     0.2887114647
C     -2.659482205     -0.4204632905     2.0704230197
C     -3.616151822     1.2952462402     0.8025347068
C     -2.6474902254     1.0287387601     1.8649832126
C     -3.5227699619     0.8724356999     -1.4662136534
C     -3.0440471032     1.755771588     -0.49368917
C     -2.8061332171     -1.2729320802     -1.9080325255
C     -2.5209794352     0.1011162652     -2.2470413362
C     -2.1605055472     -2.3205205812     0.091874452
C     -1.7753948503     -2.0025164346     -1.3025023486
C     -1.3944035897     -1.0736268844     2.0747625349
C     -1.1480591765     -2.1034586501     1.0689180071
C     -0.2105294986     -0.2906156491     2.481192318
C     -1.4704936882     1.7287609951     1.8556341171
C     -0.2552390337     1.1301833097     2.3603509925
C     -1.6969632624     2.2518923102     -0.5435911993
C     -1.0603162035     2.5231445576     0.6873595873
C     -1.1870412188     0.529616977     -2.3014057528
C     -0.8223380415     1.8070196882     -1.660250227
C     -0.4200852299     -1.7078417139     -1.6092300665
C     -0.1085799599     -0.4836311281     -2.2873361581
C     0.2140468358     -2.3903726337     0.6680729316
C     0.5712576046     -2.3037364514     -0.7421773039
C     1.0685961729     -0.8681377272     2.3541248417
C     1.2635686167     -2.0909729761     1.5974432191
C     2.3096700741     -0.0789606714     2.2593376127
C     0.8906208547     1.8556434438     1.8596802483
C     0.3619693802     2.6532532206     0.7617666938
C     2.199523813     1.3031336315     1.8251700159
C     0.5225100291     2.1453149525     -1.6103299033
C     1.1088194073     2.7434471675     -0.4175050955
C     1.2806922385     -0.0788300079     -2.3740189228
C     1.5849920277     1.30915188     -2.2064439589
C     1.9222819231     -2.1159988995     -1.110811928
C     2.293009991     -1.0408088411     -1.9799812268
C     2.6200115698     -2.1493408155     1.233804095
C     3.2928315904     -0.9238253717     1.7037938762
C     2.9978443218     -2.2725041867     -0.1262438766
C     3.6380625736     -0.6188288451     -1.5579194395
C     4.1964642844     -0.4923068571     0.6749822226
C     4.0894478979     -1.4240328628     -0.4514553562
C     3.0909627397     1.7297768755     0.7462690975
C     2.4727164047     2.3857787745     -0.378084865
C     2.8213147234     1.6714637568     -1.5917088413
C     4.0678142758     0.8287129519     0.2007584243
C     3.8259465812     0.746988252     -1.2689604049


