50

 C     2.6570798314     -2.6802301239     -0.1473939183
C     1.5036744317     -3.183818588     0.4523547506
C     1.2404853023     -2.4067608826     1.6739149955
C     3.1121604153     -1.5612567211     0.6111432284
C     2.2723653492     -1.3887482577     1.7697489096
C     3.3633020539     -0.4640839056     -0.2833701661
C     2.3113812894     -2.1678275206     -1.4728036261
C     2.8185905547     -0.8411681993     -1.6117347969
C     0.4740570662     -3.1915403408     -0.5650354896
C     0.9566758291     -2.4736689729     -1.7605228078
C     -0.8328647361     -3.0481297578     -0.1804527866
C     -0.089882316     -2.1307326233     2.0695168013
C     -1.157822102     -2.6996471605     1.2418262692
C     -0.3670595832     -0.8684043816     2.6960721401
C     1.9664520423     -0.070597881     2.2304572425
C     0.660897725     0.1627649656     2.7684715233
C     3.1856087973     0.8216482081     0.1896698484
C     2.610619225     1.0428111118     1.5406525116
C     2.6951131936     1.8694585121     -0.6936324224
C     2.03855497     0.0900432911     -2.2981703481
C     2.0408593285     1.5012833943     -1.8936901449
C     0.1013899555     -1.5058512553     -2.3977324293
C     0.7110070316     -0.256272796     -2.7550620111
C     -1.7954738408     -2.4184010154     -1.0430618402
C     -1.3495296078     -1.5353071217     -2.1072831146
C     -2.4130361407     -2.1351707445     1.2281096966
C     -2.8858642612     -2.0564925676     -0.184092132
C     -1.6409879147     -0.2178779168     2.5413376437
C     -2.6895646132     -0.8561471121     1.8442610372
C     0.0051725311     1.4398242476     2.6258236597
C     -1.398084749     1.2057433781     2.3513716362
C     2.0017996684     2.2976946477     1.5218161665
C     2.0893505934     2.8543892799     0.1478924831
C     0.6767059006     2.5191823766     2.0189331551
C     0.8759336789     3.421535297     -0.1690805259
C     -0.0232414625     3.2686093125     1.0073749252
C     0.7502651431     2.0577207251     -2.2028786149
C     -0.0646950507     0.9713578583     -2.7446011161
C     0.1578113839     3.0212599015     -1.3373939777
C     -2.116777605     -0.3347641699     -2.2924373185
C     -1.4305951721     0.9327201187     -2.5195575926
C     -3.5777185135     -0.8853119272     -0.3543750353
C     -3.4610994765     -0.0958673177     0.9139789575
C     -3.2470552487     -0.0457419799     -1.4395779499
C     -2.0642371738     1.9172888356     1.3028509513
C     -1.2890544285     2.9031773758     0.5670695339
C     -1.2107571212     2.8210800478     -0.9261752332
C     -2.0195929366     1.9194276372     -1.6060219804
C     -3.0962613372     1.2185066754     0.5658803121
C     -3.0560529005     1.262291043     -0.8943910007


