50

 C     -4.2681129552     0.10719241     0.092115875
C     -3.9624600512     -1.172525056     0.4066934251
C     -3.2066542279     -1.7781633931     -0.7136133442
C     -3.7140686455     0.417802388     -1.2518525839
C     -2.9458814988     -0.7180859521     -1.7136950733
C     -3.0681408941     1.6344515756     -1.1236053723
C     -3.6495530665     1.0277340283     1.0839351533
C     -3.040355074     2.0277820604     0.3395568001
C     -3.0953789931     -1.1743585702     1.5967416443
C     -2.81230073     0.2414469257     1.9572701262
C     -2.1162771979     -2.3993344588     -0.1572452285
C     -2.029346187     -1.9959278091     1.3040240336
C     -0.8994521247     -2.538395325     -0.8851403007
C     -1.618761968     -0.5406681503     -2.2146165756
C     -0.657277133     -1.6425207941     -2.0082793456
C     -1.7839362281     1.8668518309     -1.6568779549
C     -1.0438560036     0.8194202995     -2.286404852
C     -1.7555224168     2.505165536     0.6318928356
C     -1.0857042633     2.6942777622     -0.6580781458
C     -1.4702371541     0.6407238428     2.2307865056
C     -0.9635802197     1.9004708534     1.6696709497
C     -0.7325256526     -1.7642083324     1.8637628752
C     -0.4556866177     -0.4270759418     2.4452382093
C     0.1913859948     -3.0189979539     -0.1119107558
C     0.3042401874     -2.5275531559     1.3166884037
C     1.4712080245     -2.9957408849     -0.6418052359
C     0.7006739974     -1.4650759338     -2.3982033435
C     1.7206771967     -2.2545852901     -1.8228356467
C     0.4181782869     1.0075443351     -2.386431774
C     1.2546630745     -0.104594835     -2.5685525644
C     0.2483893627     2.8637863607     -0.7100339978
C     1.0286324558     2.1796753467     -1.7415258783
C     0.4737367102     2.1927773631     1.6627556019
C     1.0318897813     2.8959469597     0.5205277275
C     0.8806890704     -0.0735481005     2.6162124628
C     1.3565338695     1.3000519275     2.3474798773
C     1.6752527739     -2.1966841006     1.5424604387
C     2.4289372863     -2.5302874022     0.3828790491
C     1.9688821007     -0.9849676474     2.2508907373
C     2.889200571     -1.4111613828     -1.565240557
C     2.6333283202     -0.1196954357     -2.0689809605
C     3.3242111975     -1.5976795536     -0.200173582
C     2.3479322945     2.1834502799     -1.2927143962
C     2.367926848     2.6916730008     0.113815493
C     3.1629582269     1.0091542941     -1.3591123006
C     2.7272475258     1.2045087496     1.9842433
C     3.0742955584     -0.2191767586     1.8516630045
C     3.706075406     -0.4376036818     0.5688215516
C     3.211824759     1.8556655088     0.8382928796
C     3.7761004223     0.8210612609     -0.0814891905


