50

 C     3.3249347074     -1.6901956342     -0.7941159129
C     2.4363032279     -2.7019352269     -0.2981692322
C     2.1533915422     -2.3951665093     1.0850670429
C     3.563894309     -0.7392362325     0.1966438625
C     2.7404458048     -1.0860635523     1.3564204195
C     3.4313214969     0.5736980904     -0.3940815906
C     2.6731640244     -1.0093046338     -1.8971313552
C     2.7570434332     0.401010265     -1.6930242805
C     1.3468158387     -2.815095048     -1.2039059188
C     1.4290466952     -1.6517980389     -2.1411431697
C     0.1077805122     -3.2037698968     -0.6988173208
C     0.8800446875     -2.6776993184     1.5735898904
C     -0.045111203     -3.3293263075     0.7084867862
C     0.1094923118     -1.6728013072     2.3271593548
C     1.9883618086     -0.0762609329     2.0227022843
C     0.5960066325     -0.3621152161     2.4821070727
C     3.0495287613     1.6038838225     0.4245057893
C     2.34003943     1.2916178159     1.7071681609
C     2.3573425512     2.7123259762     -0.157225325
C     1.6496738704     1.2316596853     -2.0238910316
C     1.5753774989     2.5051990185     -1.3168805379
C     0.26479248     -0.8857171981     -2.4158673781
C     0.4090199261     0.5821508062     -2.4663720346
C     -1.1265484258     -2.6069003648     -1.2165193515
C     -1.0677254188     -1.4918658506     -2.0947676577
C     -1.3891059643     -2.9094410395     1.0400650386
C     -1.3125526574     -1.9315182136     2.0785024574
C     -2.1243294329     -2.6432905297     -0.1419128678
C     -2.252425487     -0.8894252141     2.0735182263
C     -0.4093476113     0.7504052466     2.5092477881
C     -1.7833953102     0.4807165845     2.2661910957
C     1.434188994     2.3397197709     1.9228412135
C     1.5431959359     3.3306442017     0.8817140088
C     0.0229029471     2.0647669737     2.1715608241
C     0.2685533622     3.1155790912     -1.0243169945
C     0.2603758777     3.5135133114     0.3811195561
C     -0.7268133136     2.8697362426     1.2483334636
C     -0.8021518085     1.3516319442     -2.3907635379
C     -0.8689612619     2.5609628248     -1.533271493
C     -2.2423556145     -0.6438679182     -2.1254259595
C     -2.0619304951     0.7602907188     -2.3587660796
C     -3.1535266908     -1.6723944604     -0.0868062103
C     -3.3045782735     -0.888847768     1.1217676646
C     -3.3161095603     -0.805451463     -1.1940194978
C     -2.5938836256     1.3365640726     1.4099878231
C     -1.965142799     2.4255154164     0.7092176709
C     -2.1020417191     2.4670947821     -0.7383407371
C     -2.883094584     1.4832435396     -1.3721941985
C     -3.5456117076     0.48984571     0.7414577305
C     -3.6362947029     0.5377129639     -0.6616455512


