50

 C     -4.1861746309     -0.6720726589     -0.4628018566
C     -3.4844847937     -1.6606123192     0.2848902494
C     -3.1358293802     -1.1464246151     1.5670606141
C     -4.0571108933     0.5788441372     0.3012238663
C     -3.4695245309     0.3119351382     1.546311919
C     -3.425610243     1.571580402     -0.5130372442
C     -3.4085844285     -0.4781006874     -1.6499243276
C     -3.0163835082     0.878716654     -1.7401190967
C     -2.3940040284     -2.2085575525     -0.4936588748
C     -2.3213355273     -1.423739732     -1.7172899588
C     -1.1894565811     -2.6161944216     0.131251422
C     -1.8523473177     -1.3076554611     2.0968366228
C     -0.8654139136     -2.1684555142     1.4825397314
C     -2.3170903394     1.0163811189     1.9910699915
C     -1.4075236137     0.020048494     2.545234377
C     -2.3166771304     2.321945976     -0.0689104056
C     -1.7258700376     2.0978044513     1.2325798305
C     -1.7111111838     1.3052870104     -2.1261081964
C     -1.3833127159     2.3858633724     -1.2108119499
C     -1.04108715     -1.0532067148     -2.2723530872
C     -0.6886634939     0.3771703113     -2.4843163801
C     -0.095280594     -2.7806760723     -0.7773084769
C     0.0152553709     -1.9034143943     -1.945126303
C     1.1906581125     -2.9785504875     -0.3077651021
C     0.538475261     -1.9669338261     1.8366614634
C     1.5712111122     -2.5807982156     1.0136088835
C     -0.0740463714     0.2815662263     2.7068948281
C     0.9179706637     -0.7579071549     2.5137492618
C     -0.2882006344     2.3694567893     1.409406674
C     0.4942109841     1.5389203562     2.2671692358
C     -0.0874139557     2.7307577285     -1.0412048737
C     0.4562192067     2.951092379     0.3113819329
C     0.7180293753     0.801301088     -2.4024943626
C     0.9486520223     2.0896701771     -1.8269952146
C     1.4324527916     -1.5613890504     -2.1345989017
C     2.1624656091     -2.4104606393     -1.2645170289
C     1.8255620809     -0.1908824178     -2.3226056521
C     2.877609354     -2.0153793167     0.9209873571
C     3.2451473595     -1.9367111243     -0.527447798
C     2.1767064482     -0.1040336037     2.2552155725
C     1.9206603657     1.3258821608     2.0905834899
C     3.1869632312     -0.7598609255     1.4891978689
C     1.8465898796     2.8540141006     0.2209299174
C     2.1791412089     2.3964725119     -1.157497403
C     2.6264128798     2.0559027487     1.1095107962
C     3.0968307713     0.197473795     -1.7282607213
C     3.7681042448     -0.6814509198     -0.8125095665
C     3.9064576651     0.0318860188     0.4885637128
C     3.2198610631     1.5161292115     -1.1233498774
C     3.6208899357     1.3573684674     0.2981590415


