50

 C     -4.0038587933     -0.4341554967     0.6863258823
C     -3.792170241     -0.5866898386     -0.76509828
C     -3.1123173304     -1.7818381169     -0.9918661377
C     -3.1889219082     -1.4498671074     1.3381511631
C     -2.7208814708     -2.3103445413     0.3454339951
C     -2.2069326118     -0.7991639747     2.1923450895
C     -3.4533350318     0.7896485476     1.032456054
C     -2.4145387494     0.6241916392     2.0551050824
C     -3.2673490386     0.6480301708     -1.3124946625
C     -3.1384955909     1.5707155196     -0.171918577
C     -2.2147699754     0.590788877     -2.2400146633
C     -1.9400725207     -1.8195579766     -1.805052992
C     -1.546932746     -0.6708447686     -2.5208596535
C     -1.3598212658     -2.7042960782     0.2886849088
C     -0.9002839706     -2.5470255502     -1.0812622497
C     -0.8810377502     -1.3161101128     2.3062804956
C     -0.4678017771     -2.3842206785     1.3684519672
C     0.1375632897     -0.3963746667     2.706876322
C     -1.3323960919     1.5333152473     2.1202243216
C     -0.0802634781     1.0349792152     2.6106303
C     -2.105219988     2.4720618683     -0.1166427378
C     -1.283510499     2.6007271008     1.1218278053
C     -1.1850156297     1.6259442973     -2.243416347
C     -1.2023979774     2.62364178     -1.2559879132
C     -0.1375626118     -0.3963509142     -2.7068800538
C     0.0802603824     1.0350027491     -2.6106213482
C     0.4678078135     -2.3842075485     -1.3684732626
C     0.8810409645     -1.3160874943     -2.3062923654
C     0.9002902958     -2.5470327799     1.0812397533
C     1.3598282245     -2.7042903049     -0.288708886
C     1.5469341494     -0.6708631488     2.5208536064
C     1.940077007     -1.819569038     1.8050368706
C     1.1850109922     1.6259274267     2.243430897
C     2.2147681215     0.5907747181     2.2400200688
C     -0.0441191656     3.0863538878     0.739746352
C     0.0441106156     3.0863604914     -0.7397187084
C     1.2023907461     2.6236340452     1.2560115223
C     1.3323918764     1.5333378891     -2.1202109421
C     1.2835035352     2.6007410137     -1.121804797
C     2.1052134164     2.4720667951     0.1166648287
C     2.2069349329     -0.7991389629     -2.1923527407
C     2.4145374238     0.6242165015     -2.0551001008
C     2.7208877337     -2.3103349649     -0.3454544863
C     3.1123220778     -1.7818391568     0.9918505005
C     3.1889262577     -1.4498474147     -1.3381643987
C     3.2673476253     0.6480271104     1.3125007853
C     3.1384919208     1.5707226707     0.1719326552
C     3.45333363     0.7896671019     -1.0324493391
C     3.7921722982     -0.5866869542     0.7650933397
C     4.0038608832     -0.4341390745     -0.6863299239


