50

 C     4.4134306903     0.2481800941     -0.4012557028
C     3.9852869418     -0.9652291853     -0.8840183169
C     3.3827166807     -1.7809680872     0.1529858952
C     3.9670881487     0.2828362549     1.0086276158
C     3.2658305511     -0.9822326233     1.3333993449
C     3.2518183447     1.4501873655     1.189133041
C     3.5904814298     1.2494471258     -1.1035934456
C     3.0678271661     2.1169313303     -0.1522237151
C     2.9600689103     -0.8044315994     -1.9317357435
C     2.6668747407     0.5900606759     -2.0553747046
C     2.2265688647     -2.4021707641     -0.4116859966
C     1.9234468093     -1.7278220284     -1.7040702353
C     1.1675745662     -2.6558146689     0.4275114331
C     2.0108065219     -0.9678427881     2.0510288901
C     1.0804114209     -2.0083661863     1.7190292747
C     1.9913364943     1.5022765479     1.8521113726
C     1.3907410122     0.3228309251     2.416113803
C     1.730486325     2.5231841735     -0.2193275344
C     1.1330735455     2.400004957     1.1043881296
C     1.3071215366     0.9969815658     -2.1415356195
C     0.8980069638     2.1738109443     -1.3549160853
C     0.575544985     -1.3854571414     -2.0004224954
C     0.2556672543     -0.0125157784     -2.3559664403
C     -0.1752998478     -2.790482437     -0.1072972695
C     -0.4768854336     -2.1995346913     -1.3748248451
C     -0.3295662927     -1.9354387749     2.0208813781
C     -1.0976076385     -2.6238206234     0.9800308784
C     -0.0217585377     0.3898190122     2.6188913714
C     -0.876729101     -0.7738859094     2.5675133364
C     -0.2611101566     2.4393498746     1.2658401273
C     -0.8458692396     1.5059652045     2.1806795363
C     -0.4569911186     2.4372640166     -1.1967286071
C     -1.0276157002     2.7963605877     0.0990024421
C     -1.1512136874     0.4010297214     -2.3843746292
C     -1.4815837798     1.7384922287     -1.9611721472
C     -1.8274190078     -1.8665688631     -1.6251579246
C     -2.1933798279     -0.6029680517     -2.2402798396
C     -2.4229604846     -2.2896882228     0.7330143982
C     -2.8459028788     -2.1730520437     -0.649972409
C     -2.243465202     -0.364756543     2.2472487062
C     -2.2155905877     1.0750109119     2.0305995217
C     -3.0506227222     -1.1815177344     1.4396690411
C     -2.3851172143     2.4806427013     0.0369244726
C     -2.725214561     1.992789575     -1.3078346929
C     -3.0395827207     1.6430613     1.0098136362
C     -3.5198422156     -0.2700106947     -1.7652729893
C     -3.9065963044     -1.2518069972     -0.777587458
C     -3.9998707984     -0.5642170946     0.4967148976
C     -3.6911297983     1.0060306629     -1.1672219024
C     -3.9732840468     0.8180487752     0.292697206


