50

 C     -4.1782177122     -0.0816408232     0.2411686414
C     -3.913643518     -0.8916328843     -0.8332169937
C     -3.2246490939     -0.1348192722     -1.8768912276
C     -3.6556535905     1.2621703656     -0.04880136
C     -3.1039486408     1.2386529227     -1.3990346925
C     -2.7835122419     1.5861004121     0.9927278968
C     -3.4924267769     -0.6270746079     1.4034230014
C     -2.6608781378     0.3789604485     1.8989680902
C     -3.1039813292     -2.0402248631     -0.4330359777
C     -2.8744721535     -1.908696518     0.9933593265
C     -2.0597553226     -0.8492687284     -2.1866528926
C     -1.993330914     -2.0617323114     -1.2969285055
C     -0.8339993485     -0.1760621033     -2.523089366
C     -1.9071041146     1.8998587239     -1.6399228368
C     -0.8418175266     1.247666505     -2.3812400851
C     -1.6241454367     2.4090834008     0.7663720993
C     -1.2548588259     2.6753639388     -0.5902054123
C     -0.5632105556     2.3277054064     1.7307415949
C     -1.3708467047     0.07789469     2.4934682639
C     -0.4069912367     1.0942299611     2.5588653293
C     -1.6099099068     -2.2015241804     1.4575423496
C     -0.8798203553     -1.2876333164     2.3724222675
C     -0.7166585379     -2.5004189511     -0.8391673078
C     -0.6111200757     -2.723824552     0.5674491829
C     0.4337891813     -0.8964698428     -2.4081992482
C     0.4950891504     -2.1119264092     -1.5755798387
C     1.637015185     -0.1263839214     -2.5361052894
C     0.3841712196     1.9466524334     -2.0793525787
C     0.1410194704     2.8326249913     -0.9487071563
C     1.5987752103     1.3116530497     -2.2308227772
C     0.7188111151     2.7571866203     1.4047008125
C     1.1246963563     2.9498466775     0.0391547417
C     1.0059608822     0.8019602508     2.6540980471
C     1.7013847276     1.8733657562     2.024278484
C     0.4986280326     -1.567481149     2.3060010029
C     0.666034252     -2.5563496654     1.2156994119
C     1.50134708     -0.5404571763     2.4757981421
C     1.7419483438     -2.4810585143     -0.9934480097
C     1.8096614213     -2.6271839944     0.482375183
C     2.8784204266     -0.6303644788     -2.0804775816
C     2.9513894911     -1.8190324902     -1.353348707
C     2.6940912891     1.6048475126     -1.3106035597
C     2.4286581708     2.3105557243     -0.1306964239
C     2.7891945703     1.6637754779     1.1551849936
C     3.5297675378     0.4325587455     -1.25953081
C     2.7647016835     -0.7089887178     1.8200494673
C     2.9752774155     -1.8789098096     0.946712941
C     3.7562678109     -1.541761524     -0.13932112
C     3.4293734025     0.3975504121     1.1658698136
C     4.0094806301     -0.1093426216     -0.0720533266


