50

 C     3.9214751729     -0.7446578035     0.9872586314
C     3.4054856187     -1.8495272876     0.210821798
C     3.2897943017     -1.4389531071     -1.1348365062
C     3.9722446272     0.4079182876     0.1129481254
C     3.6249311795     -0.008018616     -1.1866490479
C     3.1814041619     1.4825556255     0.6892133295
C     2.8978630662     -0.4482629226     1.9232921497
C     2.4864888143     0.9348313027     1.8467720593
C     2.2186042092     -2.3799813328     0.8589041705
C     1.8818249022     -1.4781568336     1.952772507
C     1.1698672808     -2.8477196251     0.0697392881
C     2.0715999294     -1.6265832677     -1.855009909
C     1.0965448236     -2.4892385661     -1.3290168892
C     2.59354856     0.6557113895     -1.9414887165
C     1.6238859037     -0.3415763471     -2.3868170681
C     2.4708120698     2.3443136639     -0.1602268495
C     2.1303696527     1.906928707     -1.5184470239
C     1.3020260263     2.9525825789     0.3639775891
C     1.1426766353     1.2872470897     2.1651019564
C     0.6196768249     2.4608732399     1.5062971166
C     0.5334256103     -1.1701721127     2.2691492157
C     0.1788467215     0.2373684309     2.5175095285
C     -0.1831868129     -2.8320645367     0.5826574285
C     -0.5109379449     -2.0685051444     1.7425627764
C     -0.2961858422     -2.3004158472     -1.6522450564
C     -1.0855640958     -2.8062361519     -0.5467616406
C     0.2359955645     -0.0456635856     -2.5547815179
C     -0.7400809614     -1.1339766169     -2.3482111032
C     0.7489140787     2.2671289212     -1.7726021886
C     0.3084831667     3.0692700813     -0.6777240099
C     -0.199018615     1.3368277802     -2.3154770787
C     -0.8175414025     2.6571355125     1.289546915
C     -0.9972575951     3.025290527     -0.1270018995
C     -1.2125435805     0.5902402495     2.5393438359
C     -1.72247488     1.8116599826     1.8651437557
C     -1.8933767039     -1.7007268501     1.9054913536
C     -2.2089782369     -0.3764470974     2.3945917933
C     -2.4212678958     -2.4153012743     -0.3810497122
C     -2.8567532852     -1.9927666281     0.9166678532
C     -2.1406839711     -0.8051013689     -2.2180871903
C     -2.9815657106     -1.5110316025     -1.3278317171
C     -1.5955558322     1.6034248931     -2.0202026754
C     -2.0010522743     2.4288170403     -0.8623721852
C     -2.5389138899     0.5818852994     -2.1047725285
C     -2.9895677895     1.4754668187     1.1894425246
C     -3.3458170167     0.1641436743     1.6459633532
C     -3.7860717069     -0.8382109979     0.7649857828
C     -3.8693321241     -0.5428658667     -0.6084150881
C     -3.1238775634     1.7706249688     -0.1949556559
C     -3.5891861711     0.739913326     -1.0851725797


