50

 C     4.3040981362     0.18474825     0.9152490242
C     4.5853187968     -0.1402976516     -0.4095700944
C     4.1169749412     -1.4740425001     -0.6457288432
C     3.5355895654     -0.9248544844     1.5603919479
C     3.4258044281     -1.9390181809     0.5999300884
C     2.3648702249     -0.344735763     2.1420955867
C     3.5133787272     1.3753551363     1.0092697227
C     2.3816335642     1.1072672084     1.8167371054
C     3.8053339623     0.8111388844     -1.2394663735
C     3.2782495783     1.848062595     -0.3689382325
C     3.0760925581     -1.351785444     -1.5748485315
C     2.8709818434     0.0602781617     -1.9909251614
C     2.1052167601     -2.3784658989     0.2704201393
C     1.8979468699     -2.0503888287     -1.1383022363
C     1.1122985485     -0.9954860264     2.0642150052
C     1.0024206509     -2.1050814418     1.1209361573
C     -0.1150469389     -0.2340850383     2.3472997983
C     1.1388491049     1.8006706627     1.6080564984
C     -0.1082045214     1.2159312865     2.1345063971
C     2.031803101     2.3475682042     -0.6444936751
C     1.0654022988     2.5895497656     0.4329206014
C     1.5284637354     0.5294364092     -2.229597861
C     1.2114888453     1.8190803875     -1.7325193895
C     0.6164520115     -1.7063689841     -1.5994540386
C     0.392335001     -0.4215902481     -2.2580221171
C     -0.2950942726     -2.4068932976     0.5770856258
C     -0.4776946804     -2.2912573964     -0.8498332028
C     -1.336477423     -0.9172333327     2.2379135188
C     -1.4261009397     -2.1345951247     1.4080570165
C     -2.629256522     -0.2482064044     2.1356563453
C     -1.3354029713     1.8379032035     1.8051594698
C     -2.6207131704     1.1524410038     1.8758402114
C     -0.2097773402     2.7899514894     -0.1671542494
C     -0.1541329076     2.2089073204     -1.4995766757
C     -1.3634259145     2.6676480802     0.598483221
C     -0.9627261837     0.0606170571     -2.334720201
C     -1.2539803882     1.4628976115     -1.974879367
C     -1.7777076264     -2.0707160446     -1.3468503135
C     -2.0253237762     -0.8994705186     -2.1253149422
C     -2.7312789363     -2.2398126666     0.9227059883
C     -3.5299783286     -1.1108275644     1.4220540729
C     -2.9467175951     -2.294058865     -0.4985892878
C     -3.3974640596     -0.4937269492     -1.8054076735
C     -4.3028476701     -0.626905423     0.3330693499
C     -3.9906098214     -1.4253597037     -0.8676194605
C     -3.4561202867     1.6208256247     0.7905872665
C     -2.5602311064     2.3866051876     -0.0869258408
C     -2.540407269     1.7787203568     -1.3769344657
C     -4.2110766459     0.7535665447     0.0016028109
C     -3.6032079578     0.8160913499     -1.3645717355


