50

 C     3.6613537806     0.2802685288     -0.6764921072
C     3.3848308035     1.4122889563     0.1130615909
C     3.042841014     0.913406996     1.4110493048
C     3.4959703466     -0.9498048667     0.1486990788
C     3.0262399036     -0.5452759786     1.4156470708
C     2.7914465467     -1.9363091914     -0.6235553425
C     2.9644267479     0.0674858897     -1.8547030415
C     2.4933212615     -1.3234620606     -1.9126809725
C     1.9115381849     0.9508524957     -2.275143092
C     2.3571141275     2.3562287862     -0.2792078841
C     1.6311224586     2.15658434     -1.5203886505
C     1.9592914807     1.6704464006     1.9288150982
C     1.6025759301     2.6747613885     0.9197153829
C     0.9410179793     0.9908191891     2.607416931
C     1.9243614196     -1.250460155     2.0418037483
C     0.9274096856     -0.4610258129     2.7178728447
C     1.8240221943     -2.7122148522     -0.0025627248
C     1.4681151413     -2.4487692458     1.3837335901
C     0.5621747536     -3.0089736979     -0.7167957497
C     1.1988102776     -1.3086172718     -2.4007059352
C     0.839088182     0.1105908316     -2.7092561317
C     0.1937646168     -2.223086221     -1.8879987729
C     -0.518121495     0.5198548273     -2.6971235726
C     0.2780029483     2.6249194354     -1.5747064958
C     -0.8000452586     1.835973591     -2.2093489302
C     0.2807919979     3.1057038348     0.825007736
C     -0.2977396481     3.2613537912     -0.4545463796
C     -0.4404504456     1.4635800053     2.5283508965
C     -0.7682876652     2.5139593758     1.6872916049
C     -0.461374017     -0.8679766024     2.7637898965
C     -1.3140213841     0.2961435662     2.6510438019
C     0.1156226298     -2.8657665572     1.5354437267
C     -0.4198663308     -3.2921971053     0.2442101513
C     -0.8695706342     -2.0910752865     2.1759281188
C     -1.7673526333     -2.8478650974     0.1271381603
C     -2.0996367208     -2.1410939707     1.3697643428
C     -1.1609615257     -1.8727089295     -2.0524641973
C     -1.538311282     -0.510764285     -2.541787438
C     -2.1745077525     -2.2866370153     -1.1046279301
C     -2.7853850165     -0.1879945913     -2.0191939934
C     -3.1796739353     -1.2662032507     -1.0932746502
C     -2.0531739692     2.1056501797     -1.5306945375
C     -1.7117117509     2.8794209688     -0.3836003248
C     -2.0199030842     2.4496493192     0.9217554374
C     -3.0253214752     1.0870047673     -1.3829682864
C     -2.5241922266     0.2312936701     1.9623695277
C     -2.9423753267     -1.0255944079     1.3342570298
C     -3.5761598059     -0.67240664     0.090475273
C     -2.9030028871     1.3387159224     1.0739551547
C     -3.5241071418     0.799323036     -0.0747663585


