50

 C     -3.2738725577     -2.1853353964     0.5204378069
C     -3.7608645443     -0.8512080366     0.4449484717
C     -3.6303096851     -0.4078154916     -0.8999376853
C     -2.6385810817     -2.5106318143     -0.7651587344
C     -2.8211791609     -1.4289949314     -1.6155283108
C     -1.2894045373     -2.9332557539     -0.5336992685
C     -2.2093420558     -2.19587017     1.4524943738
C     -1.051285084     -2.8244471753     0.8929266695
C     -3.0976104342     -0.0647632911     1.4928728799
C     -2.0456962521     -0.895568665     2.0784511809
C     -2.8068202469     1.2567590783     1.2491077692
C     -3.0808122026     0.8465161742     -1.1900573655
C     -2.9704786098     1.7983705676     -0.1275851688
C     -1.7142762042     -0.7518836528     -2.2445848469
C     -1.9213223198     0.6787936235     -2.0821690928
C     -0.2325135566     -2.5177963367     -1.3983014312
C     -0.4045237197     -1.3014850106     -2.2094274034
C     1.0512842789     -2.8244631079     -0.8928747139
C     0.2325128808     -2.5177711601     1.3983475165
C     1.2894037219     -2.9332466267     0.5337531055
C     -0.7452242169     -0.3867212224     2.3637202971
C     0.4045238618     -1.3014447789     2.2094518108
C     -1.6188756761     1.8713968832     1.8191419572
C     -0.5267977922     1.0754585697     2.2917836661
C     -2.0490896387     2.8112818013     -0.2789143796
C     -1.350821181     3.0275239896     1.0081174421
C     -0.8458553391     1.6006640416     -2.0956902244
C     -1.0475874959     2.8225925501     -1.319136197
C     0.7452237947     -0.3867646361     -2.3637134513
C     0.5267977157     1.0754164829     -2.2918036842
C     2.2093409783     -2.1958970081     -1.4524549092
C     2.0456960773     -0.8956073561     -2.078434985
C     2.6385796182     -2.5106173147     0.765204611
C     3.2738712599     -2.1853443116     -0.5203975151
C     1.7142757693     -0.7518434469     2.2445991189
C     2.8211792035     -1.428966376     1.6155556454
C     0.8458557431     1.6007019261     2.0956608036
C     1.9213223766     0.6788314606     2.0821567214
C     -0.0824969026     3.4664211246     0.751442073
C     0.0824986249     3.4664074428     -0.7515058611
C     1.0475884027     2.822616724     1.3190841461
C     1.6188761341     1.8713628764     -1.8191765708
C     1.3508221649     3.0275050816     -1.0081735041
C     2.0490915738     2.8112867055     0.2788627485
C     3.097610616     -0.0647914707     -1.4928718616
C     3.7608654869     -0.8512171527     -0.4449333085
C     3.6303091902     -0.40779976     0.8999451845
C     3.0808125384     0.8465367991     1.1900422194
C     2.806820588     1.2567352809     -1.2491316032
C     2.9704788949     1.798372271     0.1275518574


