50

 C     3.6024417884     -0.550538987     -0.6716212441
C     3.2307020776     0.6368723962     -1.323606749
C     3.0030816887     1.6288964247     -0.2913781758
C     3.4583666132     -0.3309766615     0.8048231762
C     3.0431049253     0.9980342479     1.0205168778
C     2.7529212434     -1.4368645422     1.3632303464
C     2.9319948573     -1.7091751521     -0.9821806043
C     2.4996184853     -2.36586239     0.2817008592
C     1.8387431734     -1.7277784001     -1.9067398908
C     2.1352898962     0.6870837156     -2.238925334
C     1.3776679754     -0.5010599151     -2.537236568
C     1.9707188029     2.4921020895     -0.6871257028
C     1.4374876968     1.9545201405     -1.959825779
C     1.0960788946     2.9881599344     0.2901452409
C     1.9781818931     1.2954912389     1.9606795598
C     1.1387282037     2.4273383457     1.6588456045
C     1.7076224062     -1.1806259097     2.2760860545
C     1.3733096927     0.1844828814     2.6448136602
C     0.4875805383     -1.9543485213     2.2175680602
C     1.2578760023     -2.9289194172     0.0829168478
C     0.8845166114     -2.6409923522     -1.3428677201
C     0.2296186095     -2.8455489594     1.1160498853
C     -0.4466741506     -2.5847871385     -1.6998982196
C     -0.0704742418     -0.3616102264     -2.800295861
C     -0.9528440081     -1.443489802     -2.4788190948
C     0.1106548948     2.103748329     -2.2476762745
C     -0.6524522853     0.960565765     -2.7778282512
C     -0.2708340068     3.2896871767     -0.0660624697
C     -0.7607850837     2.8781349666     -1.3405494734
C     -0.1909893458     2.4575919515     2.1260633077
C     -1.0668780405     2.9938584245     1.076664791
C     -0.0383238669     0.1961841965     2.9804517336
C     -0.5791739591     -1.1185502802     2.746887746
C     -0.821509852     1.3383718974     2.7163116333
C     -1.8892088503     -1.2606059551     2.2530779858
C     -1.1208112442     -3.0135985222     0.6856775215
C     -1.4296892073     -2.9881886112     -0.7489614718
C     -2.1668980674     -2.2960901265     1.3259519776
C     -2.3022610333     -1.2223556188     -2.0056172626
C     -2.5907409762     -2.1988813962     -0.9745816669
C     -3.0397165615     -1.7531098364     0.2879258921
C     -1.9752021918     1.1421577301     -2.3300724583
C     -2.0338038208     2.2907099489     -1.4148042162
C     -2.7751555986     0.0917608092     -1.8252367484
C     -2.2437691052     2.2221894898     1.0199558957
C     -2.1373950393     1.1915635615     2.0731473171
C     -2.6529386753     -0.0664055511     1.848265188
C     -3.308140261     -0.3854661053     0.560096604
C     -2.7648630325     1.8804214368     -0.2616445493
C     -3.264776465     0.5359022799     -0.5042999803


