50

 C     -3.8052613066     0.7648923125     -0.0591318593
C     -3.6925867366     -0.510157217     -0.6069875879
C     -3.2514166637     -1.409073431     0.4656390455
C     -3.3114578432     0.7977068252     1.287250196
C     -2.9564616976     -0.5492678715     1.6334106806
C     -2.3580347758     1.8599921208     1.4002839849
C     -3.0340461135     1.7278122239     -0.8336985399
C     -2.2961051648     2.5342844826     0.0755783964
C     -2.8398933665     -0.3669613303     -1.7863947443
C     -2.3887779047     1.0491898171     -1.8925359753
C     -1.9538202047     -1.3800723675     -2.0838219932
C     -2.3744345006     -2.4307953105     0.1370722476
C     -1.8935316497     -2.5407590649     -1.2301099676
C     -1.2307850042     -2.7444640651     1.0122411304
C     -1.7761567824     -0.7553975449     2.3558233179
C     -0.9571748468     -1.9316183556     2.1057969378
C     -1.1333043665     1.6577665761     2.1203886269
C     -0.8765316456     0.343935546     2.6353395471
C     0.0246825397     2.4465082259     1.7390295707
C     -1.085284452     3.0328117646     -0.3692630577
C     -0.0233091454     3.2387370768     0.5884330122
C     -1.02752781     1.3783005158     -2.2292176506
C     -0.4700361877     2.5149476521     -1.5745924791
C     -0.5770760307     -1.0758133268     -2.5310261838
C     -0.1033904133     0.2710261505     -2.6365745186
C     -0.5434718609     -2.941832306     -1.1966003121
C     -0.1194325366     -3.1952523662     0.1565472448
C     0.278482545     -2.122948881     -2.0605166432
C     1.192559308     -2.9408549577     0.4824279451
C     0.4241060236     -1.5774595998     2.4034277728
C     0.4840105495     -0.1734330282     2.7028756548
C     1.4943953128     -2.213544665     1.7388520944
C     1.4120594586     1.9291273722     1.8626620191
C     1.6466305083     0.6092661195     2.3466722589
C     1.250976391     3.137963864     -0.0863585169
C     0.9833910867     2.6419546935     -1.3809246656
C     2.1881484705     2.4604866546     0.7661119118
C     1.3008849674     0.4380094674     -2.5301138496
C     1.8623095725     1.6827540154     -1.946516816
C     1.659158499     -1.9117742086     -1.7548039168
C     2.1656969829     -2.4943136664     -0.523028372
C     2.1992874149     -0.6476996407     -2.1911839069
C     2.6956110304     -1.5284041126     1.5594491876
C     2.8080564479     -0.1067103237     1.8269900854
C     3.1624881933     -1.7882536355     0.2009551606
C     3.1847675929     1.662486741     0.1545659113
C     3.0363956957     1.3625275701     -1.2685500654
C     3.3077071638     -0.0644924432     -1.4825152202
C     3.5791097501     0.4580914971     0.7760929785
C     3.7383945055     -0.5992275653     -0.2794530772


