50

 C     -3.1409727896     -1.8426305426     -1.031287243
C     -3.2654087497     -1.4858261887     0.3197178794
C     -3.3882027571     -0.0402679144     0.4357489382
C     -2.9749817835     -0.643611004     -1.7909985015
C     -3.283685512     0.4643491918     -0.9198788491
C     -1.6721247012     -0.6949494956     -2.3570575273
C     -1.9623665723     -2.6693476827     -1.1702410739
C     -1.0549288206     -2.0080881819     -2.0379258031
C     -2.2826620303     -2.2283696206     1.0925069684
C     -1.5289454501     -3.0764238832     0.1332545361
C     -1.5860100061     -1.5518397901     2.0838217766
C     -2.7162677016     0.6502052317     1.5002853498
C     -1.8032807482     -0.1232846645     2.3182194836
C     -2.3676382341     2.0330324269     1.2761144969
C     -2.6192087749     1.6736008992     -1.150737985
C     -2.3975997963     2.5340382293     -0.0656326024
C     -0.8319409627     0.4758584499     -2.4614602894
C     -1.404871651     1.6996490741     -1.9991179409
C     0.6343496208     0.3137371671     -2.5000400201
C     0.351338375     -2.1404178961     -1.8550732317
C     1.2470964421     -1.0226036775     -2.2467468456
C     -0.1768770592     -3.2786178806     0.3071021491
C     0.7488720394     -3.0360887636     -0.7881183047
C     -0.1709483063     -1.8390883447     2.3215600748
C     0.4866238965     -2.80066225     1.5400583664
C     -0.5351805331     0.4146206799     2.7006039095
C     0.4986852976     -0.6095433341     2.6478067857
C     -1.1648357379     2.5809645913     1.8437195865
C     -0.1969083969     1.7628512141     2.4327644581
C     -1.1766359778     3.3197954429     -0.3265925573
C     -0.5719346635     2.7897251645     -1.5268252445
C     -0.4607040068     3.4110133191     0.8472273182
C     1.4054649109     1.4865077675     -2.2151132132
C     0.8039584826     2.6503146629     -1.5708709579
C     2.7109914925     1.3567218275     -1.6508454046
C     2.5976826632     -1.0741321051     -1.7674652118
C     3.2910452225     0.1411185439     -1.4406210932
C     2.0331921189     -2.8599178355     -0.1931117982
C     1.8451020859     -2.5975023083     1.2591750082
C     2.9507990462     -1.9904027221     -0.6955191072
C     1.8359514909     -0.3135823155     2.2079767974
C     3.6629719044     0.09778078     0.0079079106
C     2.5453664753     -1.4135496365     1.5951736101
C     3.4255218805     -1.1580278795     0.4552919878
C     1.1450053651     2.0819898368     1.8891677342
C     0.9395392815     3.1030006265     0.8780037345
C     1.6047318778     2.9659133511     -0.3618045164
C     2.7370429888     2.1463558108     -0.3918623645
C     2.1489642463     1.080288974     1.7611195847
C     3.0848265178     1.2653406547     0.6606212416


