   70
C70 / DATE: 7/ 1/2024 / Origin: Program Fullerene / C70 from database
 C            1.27370812        0.02717774        5.02813621
 C            2.49648918        0.03074376        4.24448596
 C            2.54752623       -1.22392303        3.51760158
 C            0.46171669       -1.09317624        4.57614814
 C            1.24679723       -1.85505571        3.62685970
 C           -0.82012245       -0.57300839        4.14492740
 C            0.43511274        1.20837694        5.02550345
 C           -0.88939220        0.80992558        4.57191329
 C            0.84336650        2.35925832        4.23930399
 C            2.74068557        1.10168311        3.28824359
 C            1.93692723        2.23380557        3.28571710
 C            3.05204853       -0.94968475        2.18260037
 C            3.11263586        0.49217782        2.02247234
 C            2.54620392       -1.69311792        1.12248669
 C            0.65152279       -2.28570146        2.44934075
 C            1.48832611       -2.56554480        1.37576012
 C           -1.28509880       -0.90594882        2.87561717
 C           -0.68104224       -1.95154266        2.17821750
 C           -2.07152713        0.00705488        2.17385220
 C           -1.34777013        1.79951058        3.61873116
 C           -0.32276737        2.81902639        3.50861015
 C           -1.94815886        1.37606028        2.44120000
 C            1.48681820        2.78218670        2.01737010
 C            0.10529798        3.20094874        2.17336439
 C            2.66806485        1.03879712        0.81966131
 C            1.85877633        2.17864444        0.81712318
 C            2.66437870       -1.16340176       -0.15959687
 C            2.67687611        0.22766769       -0.31551326
 C            2.32201162       -1.97079934       -1.24268590
 C            0.94244523       -3.26572143        0.31361753
 C            1.49480383       -3.06943692       -1.01425673
 C           -1.23213338       -2.35927705        0.96105400
 C           -0.50144552       -3.25714818        0.18135382
 C           -2.63566032       -0.38235433        0.95666264
 C           -2.23938225       -1.58900786        0.36793917
 C           -3.24070678        0.60123560        0.17277318
 C           -1.93415191        2.25516636        1.36504274
 C           -0.76114423        2.96540183        1.11212499
 C           -2.77293384        1.96756809        0.30197692
 C            1.09828261        2.45099156       -0.32044144
 C           -0.21939608        2.89842421       -0.16863040
 C            2.31157333        0.78168604       -1.54092436
 C            1.50343459        1.91982381       -1.54344158
 C            2.42485664       -1.44801918       -2.52700376
 C            2.42269648       -0.00577906       -2.68341560
 C            1.61588796       -2.01556193       -3.59236090
 C            0.44226044       -3.39957153       -1.96368556
 C           -0.81318713       -3.43270951       -1.22696384
 C            0.48617719       -2.85475659       -3.23980287
 C           -2.71390582       -1.92871982       -0.90137818
 C           -1.93909523       -2.81783905       -1.74976024
 C           -3.50628154        0.36066645       -1.23540418
 C           -3.29599069       -0.90656136       -1.75401401
 C           -2.40267804        2.42036256       -1.02647713
 C           -1.09223079        2.83830473       -1.25338658
 C           -3.05944485        1.53277650       -1.97467159
 C            0.79909538        2.28105530       -2.68848061
 C           -0.56205972        2.75920149       -2.53636225
 C            1.65662844        0.31765070       -3.87511851
 C            1.12949540       -0.92467977       -4.41789167
 C            0.85435634        1.44771800       -3.87763536
 C           -0.71100787       -2.25799712       -3.81381450
 C           -1.89795178       -2.24572585       -3.08739392
 C           -2.73950252       -1.06033515       -3.09002940
 C           -0.30833356       -1.08163532       -4.57090487
 C           -2.52792041        1.39080043       -3.24926026
 C           -1.36237315        2.17951793       -3.60170437
 C           -0.49116890        1.35815948       -4.42298457
 C           -2.35812672        0.06210639       -3.81897237
 C           -1.11319214        0.05207880       -4.57342518
