   70
C70 / DATE: 7/ 1/2024 / Origin: Program Fullerene / C70 from database
 C            1.22853628       -0.17640917        4.37634403
 C            2.51542272       -0.53539530        3.82988004
 C            2.46181492       -1.93466376        3.43334724
 C            0.39387419       -1.36872112        4.36889635
 C            1.11237361       -2.41193153        3.66430089
 C           -0.92107592       -0.97489875        3.89767374
 C            0.47521007        0.88788300        3.73880545
 C           -0.91174510        0.47212575        3.74110398
 C            0.97963094        1.52256776        2.60381723
 C            3.01781245        0.21737377        2.70018866
 C            2.31092149        1.31288097        2.21241027
 C            3.03161830       -2.03769879        2.10027440
 C            3.56572814       -0.73153662        1.74756512
 C            2.38376724       -2.78487769        1.12217842
 C            0.46518203       -3.11507741        2.65849503
 C            1.15282395       -3.38352595        1.40280747
 C           -1.58529662       -1.74886570        2.94655034
 C           -0.93022310       -2.82755812        2.34900246
 C           -2.66574054       -1.17336908        2.28424131
 C           -1.77604401        1.03790018        2.81713412
 C           -2.84546438        0.26381806        2.38175750
 C            0.07568495        2.14541335        1.73183178
 C           -1.29999459        2.05084248        1.98351734
 C            0.53971013        2.79985476        0.58443207
 C            2.75559643        1.84962922        1.01376759
 C            1.88458959        2.71507774        0.24812927
 C            3.63544669       -0.36418290        0.40501652
 C            3.45228606        0.97872600        0.07585056
 C            2.74476416       -2.57584961       -0.20421076
 C            3.42665693       -1.34078912       -0.56746210
 C            1.79029922       -2.87065294       -1.25767366
 C            0.14149385       -3.47645584        0.35898570
 C           -1.13455657       -3.09557922        0.93136586
 C            0.45258424       -3.06328543       -0.92607482
 C           -2.93885913       -1.54168090        0.90320308
 C           -1.99987619       -2.28690256        0.20250712
 C           -3.60223286        0.69055137        1.22174761
 C           -3.57847847       -0.40803278        0.26366560
 C           -2.20260837        2.68558510        1.13430999
 C           -3.42240285        1.98471754        0.75837932
 C           -0.36312552        3.28375833       -0.36412973
 C           -1.70938428        3.38056248       -0.03896160
 C            0.02173409        3.37494008       -1.70364891
 C            2.25950028        2.57633536       -1.14740528
 C            3.02743185        1.35004768       -1.26514250
 C            1.32052759        2.87417019       -2.11787373
 C            2.97176402       -0.96092126       -1.89867583
 C            2.13462840       -2.03899954       -2.39761692
 C            2.62020674        0.36171353       -2.15655340
 C            1.14959177       -1.74496946       -3.32381957
 C           -0.53811601       -2.48656876       -1.71985837
 C           -1.68257020       -1.93923920       -1.11638048
 C           -0.21054185       -2.15862634       -3.03155258
 C           -3.31398080       -0.14045048       -1.07452134
 C           -2.46283505       -0.98466935       -1.79162964
 C           -3.66718129        2.24531588       -0.64610287
 C           -2.70329910        3.23541202       -1.08921071
 C           -3.60206879        1.13113327       -1.57215328
 C           -0.92845784        3.04003001       -2.75384964
 C           -2.26472731        2.85887762       -2.42228422
 C           -2.92794449        1.60784237       -2.76732120
 C            1.09691251        1.92773132       -3.19756601
 C            1.65217204        0.64878466       -3.12564319
 C            1.06622242       -0.39372813       -3.84262614
 C           -0.27526549        2.10483456       -3.65693520
 C           -1.09071620       -1.30649772       -3.79896999
 C           -2.21678575       -0.69544915       -3.13139354
 C           -2.28024069        0.68523127       -3.57569769
 C           -0.28014883       -0.23698891       -4.36515391
 C           -0.98253209        1.01338092       -4.14538466
