   70
C70 / DATE: 7/ 1/2024 / Origin: Program Fullerene / C70 from database
 C            1.58651451       -0.03689881        4.56064700
 C            0.78045173       -1.22585679        4.34671593
 C            1.38745014       -1.99687507        3.27656137
 C            2.66133323       -0.05006314        3.58482086
 C            2.58309316       -1.28892415        2.85178705
 C            2.59812672        1.17901918        2.83025770
 C            0.75050013        1.11664664        4.27851166
 C            1.39583007        1.89015245        3.24363790
 C           -0.59466492       -0.80311499        4.19365892
 C           -0.59213835        0.64414582        4.03409146
 C           -1.41765424       -1.55157128        3.36598662
 C            0.57084861       -2.57325751        2.29819863
 C           -0.81877887       -2.51154002        2.44454320
 C            1.11503439       -2.82442678        1.03106705
 C            2.86887102       -1.28178987        1.49876696
 C            2.40638904       -2.35709684        0.76287309
 C            2.91042061        1.15598075        1.47273697
 C            3.10318017       -0.07404887        0.82346791
 C            2.50240832        2.25214408        0.72420043
 C            0.61961018        2.48764606        2.25683865
 C            1.29825918        2.95597454        1.13978825
 C           -1.32549751        1.19804878        2.98954033
 C           -0.73542396        2.14364142        2.13024700
 C           -2.47950213       -0.87136736        2.64717304
 C           -2.46935490        0.51895383        2.57251141
 C           -1.66381130       -2.56939477        1.26122657
 C           -2.75464817       -1.63140003        1.43900151
 C            0.25543363       -3.12067570       -0.03482970
 C           -1.06296844       -2.68442823        0.02056275
 C            0.79006854       -3.44353550       -1.27502436
 C            2.95509151       -2.53990339       -0.49302872
 C            2.22246540       -3.33439304       -1.45152921
 C            3.22229536       -0.11448694       -0.57457428
 C            3.44486548       -1.35509213       -1.17439691
 C            2.49602135        2.17548969       -0.72273001
 C            2.73758273        0.95469629       -1.34476970
 C            0.56013852        3.31668445       -0.05227290
 C            1.41133650        3.02029407       -1.19128432
 C           -1.46869112        2.61220790        1.03281731
 C           -0.80091613        3.04173789       -0.12228696
 C           -3.29603799        1.11956322        1.63617161
 C           -2.82739555        2.32181838        0.97965138
 C           -3.26582793       -0.95078982        0.34046854
 C           -3.86464546        0.28188272        0.59681120
 C           -1.61766631       -2.03154166       -1.08295523
 C           -2.75199427       -1.22442703       -0.93617866
 C            0.15275789       -2.89780516       -2.46159587
 C           -0.93646567       -2.04683866       -2.30382554
 C            2.48066590       -2.78448782       -2.76743730
 C            3.17389054       -1.51947176       -2.58556656
 C            1.19756928       -2.49987749       -3.38220659
 C            2.27181509        0.75190220       -2.65474790
 C            2.40588186       -0.49632362       -3.25421466
 C            1.21662420       -1.12136917       -3.82056710
 C            0.82128353        2.73661439       -2.40804885
 C            1.28829571        1.59312247       -3.17182430
 C           -1.41271734        2.95621926       -1.38051178
 C           -0.62680353        2.78141702       -2.51976023
 C           -3.53360566        2.41786150       -0.28292755
 C           -4.23184549        1.15628593       -0.49497448
 C           -2.77702230        2.70386345       -1.48051125
 C           -3.20240578       -0.50033546       -2.04152093
 C           -3.96319420        0.71900429       -1.84560921
 C           -3.24171543        1.78889193       -2.50945516
 C           -1.09888920       -0.98026091       -3.19262840
 C            0.02762955       -0.40091100       -3.79177111
 C            0.13511368        0.98501705       -3.81366067
 C           -1.02700341        1.79951248       -3.51717463
 C           -2.28768201       -0.25918203       -3.14502453
 C           -2.25817987        1.17732268       -3.38391465
