   70
C70 / DATE: 7/ 1/2024 / Origin: Program Fullerene / C70 from database
 C            1.29794819        0.06974354        4.46767252
 C            2.51415003       -0.26541973        3.76606686
 C            2.46056553       -1.68181639        3.44196860
 C            0.45454547       -1.11614213        4.50022267
 C            1.11543754       -2.15087659        3.72499046
 C           -0.89457040       -0.71862387        4.13665788
 C            0.49645055        1.16187104        3.96243104
 C           -0.88284842        0.71322067        3.89395271
 C            0.97309686        1.96935503        2.93064781
 C            2.83111779        0.45343825        2.54609184
 C            2.01537048        1.50466056        2.11136032
 C            2.98769031       -1.84997562        2.10152047
 C            3.28130634       -0.52758178        1.57480566
 C            2.39174224       -2.78193560        1.26778943
 C            0.40500555       -2.81626473        2.72726162
 C            1.09344334       -3.33281265        1.63106874
 C           -1.62795464       -1.53546748        3.29373573
 C           -0.98040577       -2.67856507        2.66472055
 C           -2.49676639       -0.92395613        2.30420346
 C           -1.69098552        1.27015874        2.90579828
 C           -2.36185805        0.42583152        2.00680381
 C            0.06568698        2.88436775        2.41118018
 C           -1.34956413        2.55363098        2.49715890
 C            0.29349362        3.45320231        1.10061362
 C            2.05828592        1.85791323        0.75286286
 C            1.19229735        2.83425757        0.24552572
 C            3.06288763       -0.25522687        0.23204471
 C            2.79891770        1.06104523       -0.12591013
 C            2.37614768       -2.53486938       -0.16201051
 C            2.69506329       -1.27796233       -0.64935456
 C            0.38312091       -3.63432616        0.39688564
 C            1.22768001       -3.21672557       -0.71657341
 C           -1.68316875       -2.94298468        1.41970684
 C           -2.65093148       -1.87175810        1.22056075
 C           -0.99575300       -3.44635110        0.31638921
 C           -2.87493607       -1.41608692       -0.07152364
 C           -2.68550952        0.86959388        0.71742944
 C           -2.77219254       -0.04204549       -0.34358008
 C           -2.00919023        3.12615145        1.34764998
 C           -0.99963861        3.83495580        0.57944716
 C           -2.69890897        2.23095790        0.44515852
 C           -1.26570954        3.58135141       -0.81684189
 C           -2.40672044        2.68027286       -0.89891699
 C            1.04540122        2.98887490       -1.13916367
 C           -0.20155248        3.35662795       -1.68016969
 C            2.84940322        1.38251243       -1.47347915
 C            2.04984605        2.48516551       -1.96210983
 C            2.27956742       -0.93568110       -1.93390583
 C            2.70413522        0.29436625       -2.42098506
 C            0.62367503       -2.71596576       -1.86551756
 C            1.14268056       -1.56081065       -2.48114482
 C           -1.56815650       -3.28198724       -0.94215905
 C           -2.66104914       -2.33544632       -1.08799208
 C           -0.69735152       -3.08630473       -2.08784582
 C           -2.67818439       -1.89647387       -2.46182559
 C           -1.47239980       -2.40796932       -3.09983901
 C           -2.75302278        0.42650330       -1.67269508
 C           -2.44219871        1.76419288       -1.94371614
 C           -2.74283223       -0.47807829       -2.73262376
 C           -0.55087121        2.93629247       -2.95927027
 C           -1.71753843        2.08067229       -3.09623851
 C            1.79018029        2.22681418       -3.36647286
 C            2.11707355        0.83119493       -3.62342404
 C            0.46345729        2.47029223       -3.87873249
 C            0.46883362       -0.98753856       -3.57865061
 C           -0.86566883       -1.30973802       -3.81251605
 C           -1.84840413       -0.23973298       -3.84813383
 C           -1.40265380        1.05098591       -4.07481751
 C            0.94061247        0.18776308       -4.15910671
 C           -0.01682083        1.23526320       -4.47513775
