   70
C70 / DATE: 7/ 1/2024 / Origin: Program Fullerene / C70 from database
 C            1.22953939        0.07166908        4.25047585
 C            2.50213767       -0.19411277        3.61736785
 C            2.54119395       -1.61049069        3.31183169
 C            0.40563723       -1.12331635        4.12645268
 C            1.18677853       -2.12393131        3.43287143
 C           -0.86955290       -0.72361611        3.56315791
 C            0.44404112        1.18089292        3.75965198
 C           -0.92627754        0.72138815        3.62393453
 C            0.95539303        2.00388283        2.76136859
 C            2.83468440        0.52522067        2.39982065
 C            1.97867870        1.52013748        1.93325987
 C            3.22048348       -1.76643202        2.03991471
 C            3.36978861       -0.43941655        1.45596570
 C            2.81558540       -2.80503549        1.21692863
 C            0.63353123       -2.78770862        2.34248508
 C            1.50958444       -3.40463219        1.45011020
 C           -1.33420147       -1.35534670        2.41766158
 C           -0.67243891       -2.48830769        1.93054178
 C           -2.27428540       -0.69412212        1.61860665
 C           -1.74421604        1.39658741        2.72752792
 C           -2.56458929        0.66002383        1.87005868
 C            0.08068780        2.95478724        2.25543581
 C           -1.34377877        2.67392108        2.33853701
 C            0.33053591        3.53393859        0.95289344
 C            1.96702137        1.81891632        0.56630198
 C            1.27786449        2.94819276        0.12118681
 C            3.12275099       -0.26356661        0.09648064
 C            2.56639172        0.94040701       -0.35286769
 C            2.95290105       -2.64754747       -0.21583052
 C            3.14853302       -1.37579853       -0.74934124
 C            1.02024481       -3.90997497        0.17818115
 C            1.99154290       -3.54272425       -0.84074219
 C           -1.21536228       -3.16783379        0.84714238
 C           -0.33588974       -3.83347480       -0.10073128
 C           -2.86037359       -1.36731850        0.53599084
 C           -2.29283487       -2.55631614        0.09449769
 C           -3.59744418       -0.65287094       -0.40131922
 C           -3.43312676        1.35955268        1.03480073
 C           -4.03244095        0.68767798       -0.09420322
 C           -1.99591498        3.32892053        1.21681455
 C           -0.95571531        3.94330457        0.40545190
 C           -3.07270460        2.70063653        0.60514747
 C           -1.10878968        4.02081410       -0.97213122
 C            1.26185358        3.25772059       -1.23135840
 C            0.06503964        3.85032359       -1.80923064
 C            2.46703533        1.17877473       -1.72976810
 C            1.76528707        2.29130809       -2.18203466
 C            2.96454834       -1.19722413       -2.11361593
 C            2.55631125        0.10103340       -2.60755796
 C            1.56939033       -3.27225090       -2.13627196
 C            2.22779529       -2.20304899       -2.86355270
 C           -0.78233919       -3.49565645       -1.44434125
 C           -1.97261259       -2.67536323       -1.31871450
 C            0.14536427       -3.18882401       -2.42990596
 C           -3.15517059       -0.67537977       -1.78714582
 C           -2.14343074       -1.55799586       -2.13339397
 C           -3.80732329        1.50608909       -1.27519058
 C           -3.22056388        2.76099601       -0.84233270
 C           -2.21110297        3.32022482       -1.61536993
 C           -3.09227094        0.69434408       -2.24794612
 C           -0.32066484        3.04076021       -2.95301753
 C            0.72670697        2.07809205       -3.17740608
 C           -1.65681988        2.54780923       -2.71785840
 C           -1.90825962        1.17671506       -2.79499564
 C            1.46715571       -0.10466819       -3.55071042
 C            1.22155921       -1.52016589       -3.65825181
 C           -0.07466671       -2.01396917       -3.25927391
 C           -1.06991377       -1.10350128       -2.90504233
 C            0.39295602        0.76852508       -3.48521902
 C           -0.87145799        0.27835463       -3.10218346
