   70
C70 / DATE: 7/ 1/2024 / Origin: Program Fullerene / C70 from database
 C            1.24614604       -0.01113867        4.44067977
 C            2.56949051       -0.27061254        3.90745746
 C            2.58411994       -1.64000743        3.42401645
 C            0.43529956       -1.19759964        4.20967807
 C            1.21404426       -2.12297528        3.41907229
 C           -0.84160004       -0.76515106        3.69489938
 C            0.49901086        1.13435997        3.95148789
 C           -0.84566808        0.68186963        3.64733014
 C            1.11045597        2.04433207        3.10206033
 C            3.08211537        0.57685336        2.84554778
 C            2.41494139        1.74861548        2.51866872
 C            3.32413509       -1.66454392        2.17793709
 C            3.56313575       -0.28543353        1.77859807
 C            2.92393860       -2.56562761        1.20527811
 C            0.68512264       -2.62465167        2.23009906
 C            1.57436266       -3.11469159        1.27276652
 C           -1.41257919       -1.43764572        2.62493764
 C           -0.63365804       -2.31768605        1.85374246
 C           -2.52684168       -0.84649970        2.03776096
 C           -1.57269292        1.28109332        2.62327563
 C           -2.62700585        0.55379389        2.07232723
 C            0.31155394        2.70348078        2.08444335
 C           -1.00870523        2.31878048        1.86826058
 C            2.38363117        2.17849840        1.13368308
 C            1.16152410        2.93315006        0.93280931
 C            3.36949152        0.07567494        0.44320049
 C            2.81126463        1.32184933        0.12417782
 C            3.17718173       -2.23935171       -0.18399719
 C            3.44754036       -0.91765772       -0.53723569
 C            1.11898533       -3.32372916       -0.09089064
 C            2.22747923       -3.00475399       -0.97274239
 C           -1.09141613       -2.70429044        0.58492269
 C           -0.16673658       -2.93084462       -0.43370999
 C           -3.19881213       -1.57965830        1.06959026
 C           -2.41653582       -2.46271386        0.23293279
 C           -4.19840486       -0.94582101        0.23427007
 C           -3.48896273        1.22586116        1.21333338
 C           -4.38074663        0.48238422        0.34631883
 C           -1.61493788        2.68644321        0.66347817
 C           -2.95196214        2.34170843        0.45967026
 C            0.58028679        2.92975398       -0.32670673
 C           -0.80996581        3.03590497       -0.42827717
 C            2.39667689        1.57987683       -1.18256822
 C            1.31972696        2.44478071       -1.40892154
 C            3.35221714       -0.55886320       -1.87752774
 C            2.86039794        0.76391843       -2.21076002
 C            1.96121221       -2.59307379       -2.26803558
 C            2.74493471       -1.49833405       -2.80642195
 C           -0.43566419       -2.46787401       -1.72649480
 C            0.57939790       -2.37680048       -2.66694925
 C           -2.70633349       -2.10784342       -1.14454265
 C           -3.86704844       -1.24881762       -1.14999441
 C           -1.63862278       -1.82158425       -1.98193920
 C           -4.27055819        1.04684939       -0.98635158
 C           -3.49530050        2.27240806       -0.88959474
 C           -3.79650505       -0.00122776       -1.87606640
 C           -1.38673547        3.20680011       -1.68297250
 C           -2.67705701        2.60573127       -1.95581125
 C            0.80859322        2.57802178       -2.69600449
 C           -0.57205748        2.99202399       -2.86492604
 C            2.10876254        0.66127317       -3.45358928
 C            1.89729762       -0.74940426       -3.71439632
 C            0.54539342       -1.27651102       -3.61203285
 C            1.04296316        1.51968634       -3.65848664
 C           -1.64512350       -0.66701485       -2.78319892
 C           -2.69295157        0.26787544       -2.68182871
 C           -2.44979079        1.60467140       -2.98420662
 C           -1.23400049        1.97287384       -3.66981686
 C           -0.51831821       -0.37437383       -3.57208554
 C           -0.25953225        0.94360933       -3.94962820
