   70
C70 / DATE: 7/ 1/2024 / Origin: Program Fullerene / C70 from database
 C            1.47538504        0.11287689        4.79865035
 C            0.68226387       -1.08977565        4.63139384
 C            1.51560138       -2.07329093        3.97990555
 C            2.67896586       -0.03969474        3.99609282
 C            2.72551389       -1.40337295        3.52506646
 C            2.69020599        1.02613439        3.01558759
 C            0.71662348        1.22130202        4.24597922
 C            1.56227052        1.89348781        3.28837248
 C           -0.56451306       -0.71681131        3.98972432
 C           -0.55724477        0.71995513        3.77489356
 C           -1.08812314       -1.51617994        2.98227254
 C            0.96448620       -2.78454072        2.84534675
 C           -0.37935641       -2.63731944        2.51867421
 C            2.84349096       -1.64009058        2.09813588
 C            1.91987159       -2.70298373        1.76182993
 C            2.97913237        0.75290063        1.67769493
 C            2.96614117       -0.57452474        1.21269401
 C            2.74012662        1.78064718        0.76021034
 C            0.96635537        2.48820394        2.19058304
 C            1.78280298        2.74467529        1.09809562
 C           -1.05711346        1.21702279        2.56958970
 C           -0.39942257        2.28555723        1.95123815
 C           -2.03968377       -0.94127827        2.14505479
 C           -1.89999978        0.40873022        1.80292406
 C           -2.75735243       -1.79055512        1.31739085
 C           -0.79666411       -3.21130861        1.31868447
 C           -2.13836668       -3.05557926        0.98715244
 C            1.41168292       -2.76918596        0.47074969
 C            0.15860923       -3.35173475        0.29828507
 C            2.71846310       -0.82129706       -0.13806791
 C            1.87832807       -1.88075885       -0.50645350
 C            3.04265102        1.54657292       -0.57752869
 C            3.00903656        0.17885229       -1.05329107
 C            2.48419526        2.39939482       -1.61260955
 C            1.27633935        3.60166507        0.13388162
 C            1.72711691        3.49706373       -1.24086732
 C           -0.94536007        2.84111046        0.79121667
 C           -0.16138346        3.77229957        0.10517929
 C           -2.30787131        0.85795026        0.54305318
 C           -1.94906467        2.13657543        0.11097448
 C           -3.34318119       -1.26743782        0.10145760
 C           -2.96292468       -0.00839973       -0.33749895
 C           -2.61391244       -3.45861858       -0.31873925
 C           -3.39069418       -2.35324813       -0.85937279
 C           -0.23134194       -3.65941536       -0.99939901
 C           -1.63597329       -3.84460296       -1.30934871
 C            1.31485278       -1.92390471       -1.79133968
 C            0.37738332       -2.91667696       -2.08983165
 C            2.36838146        0.16961037       -2.35284222
 C            2.02735941        1.54297662       -2.69852068
 C            1.48493717       -0.85113144       -2.67318763
 C            0.82262398        1.81114762       -3.35221165
 C            0.62777642        3.91630227       -2.09067287
 C           -0.51631403        4.19343311       -1.23249559
 C            0.17592362        3.03090702       -3.14786626
 C           -2.39441952        2.56514965       -1.14127169
 C           -1.68520856        3.61283028       -1.84905999
 C           -1.27584469        3.06804069       -3.13220872
 C           -2.94605387        0.25479325       -1.70813897
 C           -2.77367620        1.56895124       -2.12743316
 C           -2.00158493        1.83052959       -3.33357993
 C           -2.92642313       -2.09997741       -2.20971321
 C           -1.92121273       -3.10300872       -2.52308081
 C           -0.65576530       -2.65983155       -3.08243318
 C           -2.69330730       -0.78697075       -2.60791699
 C            0.54033154       -0.61244858       -3.66703270
 C            0.11875399        0.75543418       -3.93133633
 C           -1.33964976        0.77241287       -3.93407302
 C           -0.63643301       -1.45390285       -3.76325212
 C           -1.78854300       -0.57563866       -3.64535969
