   70
C70 / DATE: 7/ 1/2024 / Origin: Program Fullerene / C70 from database
 C            1.28092348       -0.03023354        4.39835935
 C            2.55956292       -0.22643762        3.75443303
 C            2.56711598       -1.56765038        3.19397072
 C            0.45395089       -1.19762948        4.12127884
 C            1.20579599       -2.06486352        3.24188367
 C           -0.84397314       -0.71883329        3.68225167
 C            0.49754668        1.13261357        4.03971247
 C           -0.88605948        0.69465819        4.00097925
 C            0.95246156        2.01080724        3.05324905
 C            2.94676530        0.68041666        2.69250878
 C            2.05142386        1.66085946        2.25555355
 C            3.22810326       -1.49767876        1.89909972
 C            3.65623709       -0.12116989        1.71258282
 C            2.66794043       -2.17981692        0.81966309
 C            0.63017571       -2.48787228        2.05374898
 C            1.47367228       -2.88154661        1.02341211
 C           -1.35209873       -1.14976646        2.45816595
 C           -0.69885933       -2.16635267        1.75431686
 C           -2.31991947       -0.37723772        1.81185403
 C           -1.80370289        1.49449352        3.34379949
 C           -2.60809132        0.90747658        2.28315012
 C            0.06200509        2.97792945        2.60131419
 C           -1.35427460        2.79304546        2.87403194
 C            0.18519275        3.49329824        1.25150121
 C            2.16928405        2.15951275        0.94994538
 C            1.22834934        3.06101169        0.44267331
 C            3.77495063        0.36716641        0.42416163
 C            3.13637214        1.62870133        0.09531120
 C            3.03914210       -1.80688184       -0.47775863
 C            3.55515570       -0.53268694       -0.69740258
 C            2.48178997       -2.47474033       -1.56368725
 C            0.92483813       -3.61915953       -0.01148733
 C            1.55767046       -3.55855550       -1.31049333
 C           -1.24832299       -2.63390159        0.55812337
 C           -0.51159996       -3.54010022       -0.21109172
 C           -2.73053010       -0.72760450        0.52342957
 C           -2.32142442       -1.95021026       -0.01826921
 C           -3.26188692        0.26707273       -0.30580904
 C           -2.89544228        1.95621227        1.32034021
 C           -2.09160434        3.10797415        1.66511857
 C           -1.15167739        3.59716042        0.68024099
 C           -2.99482417        1.59788562       -0.01308348
 C           -1.33780131        3.24253866       -0.65223667
 C           -2.40409865        2.40243192       -0.99489430
 C            1.09422582        3.22096315       -0.93677980
 C           -0.24031782        3.32994926       -1.50426664
 C            2.90274891        1.62746891       -1.33705293
 C            3.02463030        0.25479669       -1.79890438
 C            1.89386750        2.42021965       -1.84878526
 C            1.95278816       -1.68912080       -2.67152222
 C            2.03867005       -0.30406397       -2.61255833
 C            0.51253575       -3.50335369       -2.31496302
 C           -0.76309814       -3.66054950       -1.63897587
 C            0.72487573       -2.31389014       -3.12395304
 C           -2.77502147       -2.33512066       -1.27857194
 C           -1.86077038       -3.01262874       -2.17659950
 C           -3.70430238       -0.04350755       -1.58242351
 C           -3.51355024       -1.38424820       -2.08914657
 C           -2.57525424        2.04860470       -2.33271691
 C           -3.38190516        0.88010959       -2.65280567
 C           -0.24257790        2.61368606       -2.77032404
 C            0.99453431        1.85722491       -2.83898204
 C            0.95215929        0.47457931       -3.02312987
 C           -1.41175216        2.01523108       -3.20335475
 C           -0.37535156       -1.52379038       -3.43656353
 C           -1.63987225       -2.09657883       -3.28101392
 C           -2.82833651       -1.27555472       -3.37060633
 C           -2.67587644        0.12830889       -3.67717909
 C           -0.23576762       -0.12865595       -3.46143239
 C           -1.33751584        0.67758444       -3.76133998
