   70
C70 / DATE: 7/ 1/2024 / Origin: Program Fullerene / C70 from database
 C            1.51133257        0.02134736        5.20449670
 C            0.71642213       -1.18659846        5.09053208
 C            1.48100460       -2.14804472        4.31876596
 C            2.67654767       -0.13445543        4.34853169
 C            2.66839407       -1.47480428        3.81347035
 C            2.67724440        0.96493690        3.41168652
 C            0.72011822        1.12356876        4.67986187
 C            1.50634769        1.78768812        3.67168915
 C           -0.60239824       -0.80714863        4.61559959
 C           -0.57121299        0.61131846        4.29039505
 C           -1.27793421       -1.66270261        3.75525776
 C            0.83570252       -2.80625658        3.19724712
 C           -0.54277724       -2.71093680        3.05308509
 C            2.69585362       -1.64215391        2.36990514
 C            1.67416298       -2.61181226        2.02596668
 C            3.02134327        0.74699869        2.08007739
 C            2.87462511       -0.53851135        1.52954275
 C            2.83953954        1.83934849        1.24675491
 C            0.86703397        2.34397535        2.56926076
 C            1.70324448        2.70573861        1.52465649
 C           -1.13166994        1.03421296        3.08589839
 C           -0.44591565        1.94918004        2.26147550
 C           -2.21356275       -1.08837870        2.80449577
 C           -2.17844552        0.28016424        2.55477715
 C           -1.10969382       -2.81933476        1.72059752
 C           -2.30104830       -1.99827172        1.67582079
 C            1.08336294       -2.51673079        0.77283968
 C           -0.27244091       -2.81015086        0.61489603
 C            2.51840726       -0.67783494        0.17736977
 C            1.72214771       -1.76051058       -0.20978715
 C            2.89247168        1.65983645       -0.18459033
 C            2.71020926        0.38567247       -0.70807067
 C            1.13491124        3.09151296        0.25322427
 C            2.13240420        2.75885298       -0.74496593
 C           -1.00604457        2.30538402        1.02252112
 C           -0.20056302        2.80629599       -0.00812305
 C           -2.84159776        0.74755138        1.43184569
 C           -2.29808481        1.89288122        0.73057614
 C           -2.70668679       -1.48835282        0.44652562
 C           -3.25923647       -0.21596175        0.42557618
 C           -0.84058111       -2.57923048       -0.62955207
 C           -2.09253694       -1.95825369       -0.71570863
 C            1.23731120       -1.83286771       -1.51478851
 C            0.01608030       -2.48103117       -1.71311621
 C            2.28731926        0.26926327       -2.03574590
 C            1.70339456       -0.92303677       -2.46719268
 C            1.72470018        2.65142638       -2.05612066
 C            2.06791766        1.43815412       -2.76810686
 C           -0.62171025        2.73677504       -1.34593661
 C            0.32892917        2.89744526       -2.35790891
 C           -2.72351176        1.79348335       -0.65198544
 C           -3.34398251        0.48897422       -0.83497609
 C           -1.90907457        2.28533064       -1.66549031
 C           -2.50676730       -1.46386142       -1.95908596
 C           -3.09931494       -0.19032991       -2.02226879
 C           -0.55120403       -2.51065620       -2.97512810
 C           -1.90994642       -2.01518249       -3.09753323
 C            1.25835143       -1.03071648       -3.78676612
 C            0.21501717       -1.99072515       -4.08373498
 C            1.20705382        1.40291085       -3.93439778
 C            0.09683630        2.31657105       -3.66683321
 C            0.96415936        0.17947885       -4.53830545
 C           -2.20061880        1.87036868       -2.96825030
 C           -2.90359336        0.61042508       -3.14426333
 C           -1.19553233        1.95739134       -4.01302387
 C           -2.02146721       -1.34594647       -4.38016054
 C           -0.71616040       -1.38754664       -5.02049478
 C           -0.28903804       -0.01896067       -5.24484704
 C           -2.47819185        0.02281376       -4.39628872
 C           -1.40735675        0.85001988       -4.93167449
