   70
C70 / DATE: 7/ 1/2024 / Origin: Program Fullerene / C70 from database
 C            1.56994348       -0.00597109        4.65256691
 C            0.73892639       -1.16790712        4.41509832
 C            1.37619808       -1.97609446        3.38953298
 C            2.65509890       -0.03662291        3.68632100
 C            2.48564624       -1.20601518        2.85722344
 C            2.69196982        1.24950265        3.03637357
 C            0.76366587        1.16773401        4.36541769
 C            1.53920222        2.01029186        3.49498196
 C           -0.61186901       -0.70002013        4.17069632
 C           -0.52508406        0.72405808        3.88613159
 C           -1.41593585       -1.48114772        3.36359647
 C            0.56063416       -2.65700662        2.49177371
 C           -0.81966906       -2.63121061        2.70321049
 C            1.03978029       -2.90406994        1.20229318
 C            2.59260635       -1.08180694        1.47762331
 C            2.07634215       -2.11003035        0.69465715
 C            3.00232329        1.32130279        1.67944153
 C            2.86112956        0.16704467        0.88579642
 C            2.80082114        2.56802618        1.08907669
 C            0.88424567        2.76695171        2.53953427
 C            1.73382214        3.38674352        1.64150068
 C           -0.99066820        1.21415335        2.66150809
 C           -0.36984688        2.32497154        2.06806808
 C           -2.23791377       -0.82853515        2.36486246
 C           -1.89657890        0.44957936        1.92206582
 C           -1.71318294       -2.98963126        1.61740570
 C           -2.58603617       -1.84685808        1.38911115
 C            0.25069767       -3.65947737        0.33659765
 C           -1.19075830       -3.65577238        0.52093836
 C            0.51706953       -3.65512308       -1.09292529
 C            2.37119591       -2.11491498       -0.66177269
 C            1.56175973       -2.88874964       -1.58582657
 C            2.77716887        0.29056368       -0.51067955
 C            2.69921651       -0.85395931       -1.29629017
 C            2.70064736        2.67332948       -0.35137068
 C            2.44470138        1.51939425       -1.08093187
 C            1.16014435        4.15727246        0.57306450
 C            1.94440364        3.88056498       -0.61807416
 C           -0.85958497        2.81111164        0.84292942
 C           -0.22072188        3.90080841        0.24271350
 C           -2.21828272        0.81758793        0.61536318
 C           -1.76991297        2.04030154        0.09779710
 C           -2.85327458       -1.45397192        0.08631162
 C           -2.90027151       -0.08998732       -0.20073656
 C           -1.79207550       -3.43214766       -0.77979816
 C           -0.76366655       -3.65966319       -1.78172532
 C           -2.68496126       -2.37673161       -0.95047864
 C           -0.88679737       -3.03561445       -3.01714638
 C            1.37409134       -2.09080481       -2.78794418
 C            1.97022819       -0.78861897       -2.54924266
 C            0.18264520       -2.16823669       -3.49383064
 C            1.65295515        1.56305795       -2.24160821
 C            1.26174347        0.37064891       -2.84823131
 C            1.02846695        3.88831964       -1.73162833
 C           -0.30969122        4.07757259       -1.18771601
 C            0.96960902        2.72243118       -2.58904914
 C           -2.07581681        2.39605714       -1.23003180
 C           -1.18957609        3.20850755       -1.92382748
 C           -0.41158192        2.59806983       -2.98955220
 C           -3.36687820        0.32185107       -1.43611926
 C           -2.80855025        1.51860105       -2.02101687
 C           -3.03528687       -2.01527574       -2.24698870
 C           -2.14877526       -2.39022712       -3.33761770
 C           -3.49084770       -0.66188819       -2.49892868
 C           -0.42383000       -0.94273133       -3.98650746
 C            0.02769647        0.29377853       -3.51524261
 C           -0.86262684        1.37897581       -3.47531992
 C           -2.21842425        1.12641103       -3.28948683
 C           -1.85128364       -1.18939806       -4.09727517
 C           -2.76653498       -0.15935501       -3.65666310
