   70
C70 / DATE: 7/ 1/2024 / Origin: Program Fullerene / C70 from database
 C            1.38317194       -0.11610006        5.13935107
 C            0.54776930       -1.29757645        5.22438060
 C            1.14260319       -2.31882336        4.38113753
 C            2.46860928       -0.40593440        4.21787419
 C            2.25352417       -1.72179852        3.65833640
 C            2.55598041        0.70407979        3.30277620
 C            0.59058920        0.94504336        4.54206362
 C            1.40087656        1.55511998        3.51110598
 C           -0.74374186       -0.96913858        4.64652567
 C           -0.68680672        0.39093383        4.14817327
 C            0.07194756       -2.91247306        3.60834914
 C           -1.07638708       -2.02041280        3.70813769
 C            0.38777531       -3.41677771        2.35530813
 C            2.31583838       -1.88686587        2.27217602
 C            1.59894532       -2.93742273        1.69902800
 C            2.90379737        0.46000565        1.98540221
 C            2.75350646       -0.83177674        1.45529823
 C            2.74390094        1.52414328        1.11335882
 C            0.77604623        2.03676894        2.36624091
 C            1.59476685        2.31051462        1.27234391
 C           -1.13945254        0.64189515        2.85593938
 C           -0.54679402        1.66054699        2.10594690
 C           -1.74118177       -1.68133850        2.53502556
 C           -1.89280268       -0.32835140        2.19476601
 C           -0.65227107       -3.43800320        1.34434521
 C           -1.77281839       -2.63104629        1.51892349
 C            1.35554733       -2.94477255        0.26471881
 C            0.00863819       -3.44014191        0.05071068
 C            2.71050581       -0.97880922        0.05814716
 C            1.81318940       -1.88665862       -0.50800077
 C            3.29280820        1.37253406       -0.14571024
 C            3.20963955        0.05185834       -0.73534793
 C            2.97293212        2.34500996       -1.16435376
 C            1.01191980        2.91511319        0.15975881
 C            1.80022746        3.16443159       -0.96050253
 C           -1.08211572        1.97038426        0.85621955
 C           -0.37570543        2.83984355        0.02631364
 C           -2.47938397       -0.00377686        0.97057050
 C           -2.08383864        1.16089556        0.30652074
 C           -2.56251274       -2.37202933        0.41125065
 C           -3.07071172       -1.02556103        0.24127957
 C           -0.70504352       -2.98669830       -1.04924209
 C           -2.07257143       -2.78770382       -0.88847069
 C            1.13177115       -1.56109000       -1.68881205
 C           -0.03563952       -2.25580347       -2.03196772
 C            2.69867841        0.21687783       -2.08482346
 C            2.78633821        1.62363961       -2.40992479
 C            1.55922950       -0.47882024       -2.46400025
 C            1.16994623        3.31689416       -2.25533486
 C            1.66896316        2.23571176       -3.09716542
 C           -0.99295275        3.31273140       -1.12662926
 C           -0.18376889        3.61202427       -2.30005591
 C           -2.56252043        1.43652663       -0.98253527
 C           -2.20228398        2.64708356       -1.57829429
 C           -3.32276858       -0.84028133       -1.17450563
 C           -2.78827954       -2.00483089       -1.87255074
 C           -3.15730819        0.41733791       -1.74542729
 C           -0.74031932       -1.89274422       -3.18006672
 C           -2.19363225       -1.81223816       -3.10819475
 C            0.72452658        0.04683149       -3.45644115
 C            0.74425619        1.42393800       -3.74644121
 C           -0.27737020       -0.76780316       -3.97398568
 C           -0.93100969        3.17302782       -3.46377550
 C           -2.26047927        2.79811837       -3.01877548
 C           -0.40625345        2.05298746       -4.22121462
 C           -3.14352624        0.47915915       -3.14074645
 C           -2.60417273       -0.65189638       -3.87126096
 C           -1.44419532       -0.17290831       -4.59716706
 C           -2.67456202        1.66762358       -3.81785885
 C           -1.54358409        1.26877237       -4.64822085
