   70
C70 / DATE: 7/ 1/2024 / Origin: Program Fullerene / C70 from database
 C            1.66131169       -0.01646157        4.61106908
 C            0.81054431       -1.17852449        4.46006139
 C            1.35725131       -1.99727245        3.39307954
 C            2.65406610       -0.05806640        3.54991190
 C            2.41283702       -1.23563278        2.75028508
 C            2.62931093        1.21936106        2.88573505
 C            0.83512985        1.15852352        4.39241603
 C            1.51314094        1.98204147        3.42631261
 C           -0.55683330       -0.71397788        4.33100094
 C           -0.50349022        0.71764675        4.07503227
 C           -1.42602675       -1.48735367        3.58072251
 C            0.47549144       -2.69371573        2.57864475
 C           -0.89325545       -2.62914111        2.85308864
 C            0.87585909       -2.99785801        1.28117977
 C            2.39355279       -1.12374914        1.36180738
 C            1.77769323       -2.13952443        0.63238081
 C            2.83054645        1.27526649        1.50999499
 C            2.63882386        0.11222356        0.74040335
 C            2.57207165        2.50989297        0.92807535
 C            0.76327131        2.71709824        2.52121411
 C            1.50930453        3.30903489        1.51533896
 C           -1.13378439        1.23240366        2.94051718
 C           -0.55159431        2.30079971        2.22674886
 C           -2.36398667       -0.82807759        2.69073090
 C           -2.20903654        0.52395947        2.39525446
 C           -1.84604186       -2.93681528        1.79607153
 C           -2.66845167       -1.75273316        1.60746431
 C            0.03261920       -3.80656915        0.53123699
 C           -1.39797603       -3.61947893        0.67920514
 C            0.29703698       -3.99268044       -0.87604636
 C            1.86737860       -2.12351520       -0.76080152
 C            1.30093709       -3.15952603       -1.49983713
 C            2.47721760        0.21088800       -0.65090798
 C            2.25933089       -0.94732515       -1.40582235
 C            2.45108651        2.61572866       -0.50664988
 C            2.32567900        1.46201577       -1.26067498
 C            0.82986976        4.00193057        0.45324199
 C            1.53940224        3.70553750       -0.77835177
 C           -1.21760894        2.82773192        1.10361385
 C           -0.56719032        3.70719464        0.24177367
 C           -2.86327529        1.01877983        1.27767520
 C           -2.39165465        2.23671946        0.65624389
 C           -2.87800750       -1.23951865        0.32715526
 C           -3.24611843        0.09324112        0.22088284
 C           -1.88847568       -3.21190319       -0.62242489
 C           -0.95501463       -3.75507793       -1.58115676
 C           -2.36531910       -1.91159819       -0.78959109
 C            0.80968532       -2.88724070       -2.83280123
 C           -0.64026839       -2.97064631       -2.74772177
 C            2.13840686       -0.84275995       -2.79538356
 C            1.35459140       -1.82559001       -3.53232775
 C            1.73925787        1.54870668       -2.52399215
 C            1.87288929        0.46121803       -3.37936083
 C            0.55005985        3.51206365       -1.81506269
 C           -0.76741467        3.57804506       -1.19465225
 C            0.76710764        2.53318223       -2.77419730
 C           -2.64329786        2.13045198       -0.77517069
 C           -3.10534015        0.77531645       -1.04419840
 C           -1.78289529        2.75110087       -1.68084657
 C           -2.12366371       -1.21720694       -1.99298164
 C           -1.38395139       -1.83009358       -3.02677198
 C           -2.60156472        0.09699721       -2.14450558
 C            0.47229522       -1.09402033       -4.42355423
 C            0.92878290        0.28024077       -4.46673511
 C           -0.94756337       -1.07680247       -4.11196238
 C           -0.32394819        2.22557458       -3.57494900
 C           -1.63539435        2.19384823       -2.95297205
 C           -2.18842960        0.87496788       -3.21795107
 C           -0.24585660        1.12198869       -4.50623820
 C           -1.41111069        0.27873527       -4.27896941
