   70
C70 / DATE: 7/ 1/2024 / Origin: Program Fullerene / C70 from database
 C            1.04245799       -0.05914466        4.71264965
 C            2.29081007       -0.35366478        4.04589796
 C            2.25140958       -1.74801401        3.64166842
 C            0.22516475       -1.26452194        4.67276880
 C            0.87546647       -2.19023709        3.77046748
 C           -1.13219996       -0.86201653        4.38829750
 C            0.22552062        1.02629898        4.20936214
 C           -1.14674727        0.59033666        4.32593755
 C            0.59606825        1.70522699        3.04922680
 C            2.65190104        0.41921779        2.87628117
 C            1.83877231        1.46237023        2.43936328
 C            2.88493914       -1.85086816        2.33858585
 C            3.17361565       -0.50009282        1.88333711
 C            2.35655603       -2.75124780        1.42943406
 C            0.21703907       -2.64395959        2.62659425
 C            0.99911708       -3.23545198        1.63980541
 C           -1.76305476       -1.34853392        3.17616935
 C           -1.04433485       -2.13226509        2.27868257
 C           -2.06154130        0.96616170        3.27040502
 C           -2.55929389       -0.25677972        2.65614904
 C           -0.38364048        2.42129234        2.34978259
 C           -1.72702663        2.02075416        2.42838350
 C            0.02695134        3.28129120        1.33368652
 C            2.07250580        1.96798817        1.16082360
 C            1.33416665        3.06945348        0.74393971
 C            2.99993930       -0.17080191        0.54140364
 C            2.71579565        1.15542760        0.21867538
 C            2.48911175       -2.46891250        0.01345135
 C            2.75219276       -1.17301683       -0.40620895
 C            0.42687440       -3.49991634        0.33697418
 C            1.44822137       -3.21281879       -0.65920070
 C           -1.48422715       -2.19935960        0.95197631
 C           -0.87769988       -3.10454993        0.07499002
 C           -2.86524445       -0.22449110        1.29900083
 C           -2.36734806       -1.22408027        0.45785119
 C           -2.55437874        2.19693049        1.32544821
 C           -3.17425278        1.01567196        0.74817868
 C           -0.88967844        3.63791753        0.26346702
 C           -2.15468491        3.07176706        0.24093519
 C            1.25739957        3.40762025       -0.66660239
 C           -0.12349159        3.74869052       -0.96867457
 C            2.76686696        1.53237397       -1.11771674
 C            2.00772077        2.68089059       -1.57958258
 C            2.41528772       -0.81292408       -1.71232206
 C            2.66724982        0.49384712       -2.12565062
 C            1.02443873       -2.80151352       -1.91537184
 C            1.58544794       -1.64509036       -2.48070351
 C           -1.29391351       -3.15779436       -1.25121039
 C           -0.26584580       -3.17919956       -2.27668788
 C           -2.60700842       -1.13912948       -0.91460679
 C           -2.31169686       -2.23578290       -1.70850688
 C           -3.18921202        1.17965695       -0.69346214
 C           -2.67527104        2.50572358       -0.99350889
 C           -2.83275455        0.10888668       -1.50480688
 C           -0.68847443        3.34799686       -2.17489577
 C           -1.99498393        2.70655906       -2.18539430
 C            1.45111689        2.35364111       -2.88334607
 C            1.96514315        1.04787939       -3.26977563
 C            0.13690323        2.69599457       -3.18136394
 C            1.14784984       -1.20875484       -3.73460058
 C            1.19687893        0.20633200       -4.06036864
 C           -0.85397268       -2.67219174       -3.49673755
 C           -2.11883192       -2.04883064       -3.13482982
 C           -0.09474102       -1.72317353       -4.28074005
 C           -2.41382653        0.36029867       -2.81670936
 C           -1.94945597        1.62981149       -3.15880480
 C           -0.70556665        1.75581339       -3.90188502
 C           -0.14298903        0.61509670       -4.46163341
 C           -2.11119837       -0.70102156       -3.66301502
 C           -0.95831276       -0.58506730       -4.54112753
