   70
C70 / DATE: 7/ 1/2024 / Origin: Program Fullerene / C70 from database
 C            1.33529042        0.03966141        4.72391681
 C            2.55213748       -0.11876742        3.95565999
 C            2.52850888       -1.43921682        3.34842959
 C            0.49198240       -1.11662698        4.46696079
 C            1.22673702       -2.02707623        3.60362656
 C           -0.80381985       -0.63669530        4.01583536
 C            0.53250874        1.22513889        4.51181404
 C           -0.82060462        0.79833754        4.18395676
 C            0.93643111        2.18949980        3.50240268
 C            2.86170725        0.83883426        2.90802456
 C            2.09465819        1.99412059        2.74361907
 C            2.96434892       -1.30920786        1.96693243
 C            3.26908566        0.08889546        1.72878355
 C            2.28597162       -2.02021882        0.98563462
 C            0.55511852       -2.61129725        2.53650781
 C            1.27474887       -2.89608747        1.37646216
 C           -1.33768751       -1.18950232        2.85795369
 C           -0.81939649       -2.40437676        2.42724342
 C           -2.01919725       -0.38296367        1.93519664
 C           -1.28608954        1.61501110        3.08232397
 C           -0.27952823        2.62881179        2.83743128
 C           -1.88967440        1.01041767        1.98434450
 C           -0.18881373        3.15973208        1.56038619
 C            2.21400871        2.68558511        1.54208368
 C            1.07536239        3.43961868        1.04945718
 C            3.02495631        0.63536323        0.47369431
 C            2.79600876        2.00455544        0.39525970
 C            2.29512020       -1.53980982       -0.32355473
 C            2.57563501       -0.18674924       -0.56277264
 C            1.74975755       -2.33303955       -1.33851580
 C            0.66332140       -3.68081670        0.40867807
 C            0.91760075       -3.39542545       -0.99344433
 C           -1.51476742       -3.10143822        1.45316558
 C           -0.75507159       -3.94836942        0.55361196
 C           -2.55355459       -0.98091047        0.78766063
 C           -2.48023745       -2.37027682        0.65333789
 C           -2.87070889       -0.19522982       -0.32531190
 C           -1.98679753        1.74547037        0.80436777
 C           -1.22816581        2.91789853        0.66512565
 C           -2.62854752        1.17917380       -0.29885971
 C           -1.18168633        3.56923231       -0.56107470
 C            1.24450914        3.58114232       -0.38812867
 C            2.19867486        2.56698591       -0.80563003
 C            0.11862036        3.79048935       -1.16836746
 C            2.25617558        0.38088945       -1.79622082
 C            1.87628874        1.72475558       -1.86514913
 C            1.66658161       -1.83123994       -2.63373250
 C            2.04325077       -0.45427692       -2.88232743
 C            0.46855487       -2.10560263       -3.41323662
 C           -0.32807841       -3.58043860       -1.72471426
 C           -1.36918134       -3.87441499       -0.75843145
 C           -2.50363840       -2.97881364       -0.66868244
 C           -0.60821579       -2.72772726       -2.78795035
 C           -3.19453770       -0.81190077       -1.53496075
 C           -2.79736357       -2.18575377       -1.76261464
 C           -1.89290104       -2.18268681       -2.90679549
 C           -2.98470646       -0.10231983       -2.78462755
 C           -2.10260342       -0.92064802       -3.60735244
 C           -2.82277818        1.93426421       -1.45413882
 C           -2.09772769        3.17480106       -1.60988297
 C           -2.81839426        1.27326272       -2.74703716
 C            0.06784068        3.19578095       -2.49052107
 C            0.92520418        2.14341949       -2.80496218
 C           -1.33548135        3.08399273       -2.84502274
 C           -1.78110897        1.89823459       -3.55551417
 C            1.25032981        0.02752006       -3.99487939
 C            0.24396742       -0.97784263       -4.29758456
 C           -1.05227858       -0.32898347       -4.29786096
 C            0.57985021        1.30356490       -3.86050273
 C           -0.82751049        1.10229028       -4.17952630
