   70
C70 / DATE: 7/ 1/2024 / Origin: Program Fullerene / C70 from database
 C            1.29903360        0.07493908        4.39753768
 C            2.48933678       -0.25215069        3.64722222
 C            2.47430699       -1.68267171        3.40000390
 C            0.50385088       -1.13895123        4.52647832
 C            1.14725858       -2.17006561        3.73236997
 C           -0.87826417       -0.79189262        4.25068500
 C            0.42285918        1.11124893        3.89080871
 C           -0.93620296        0.65269028        4.10115934
 C            0.72923736        1.78109531        2.70378974
 C            2.70708926        0.40282695        2.37424660
 C            1.82691596        1.38501821        1.92970217
 C            2.97535433       -1.90401277        2.05669517
 C            3.14911065       -0.60485453        1.42654267
 C            2.41267460       -2.92304474        1.31097767
 C            0.41847087       -2.85474853        2.76017687
 C            1.10025976       -3.43466616        1.69178636
 C           -1.61932778       -1.59861188        3.39627767
 C           -0.96290230       -2.67282363        2.66489363
 C           -2.60795810       -0.99874513        2.51200331
 C           -1.93863922        1.22169395        3.33311786
 C           -2.81969332        0.36934350        2.54308969
 C           -0.27232766        2.55299323        2.10504204
 C           -1.60054881        2.35740775        2.49570676
 C           -0.02220035        3.19008441        0.88468324
 C            1.84158666        1.70961279        0.58051028
 C            1.09927120        2.79724610        0.14261436
 C            2.81700172       -0.44154611        0.08101727
 C            2.35626212        0.79881695       -0.34838689
 C            2.42179053       -2.81010436       -0.13422505
 C            2.60370701       -1.55962152       -0.72955866
 C            0.38280362       -3.73276515        0.46268366
 C            1.35617612       -3.66665998       -0.61469232
 C           -1.62047431       -2.78895376        1.36992826
 C           -2.52590225       -1.66642821        1.22496757
 C           -0.88734894       -3.19475426        0.26649464
 C           -2.49291697       -0.91776671        0.04834829
 C           -3.08800749        1.06634426        1.29569651
 C           -2.64494969        2.43236782        1.49427459
 C           -2.82436775        0.44050054        0.07359546
 C           -1.10047872        3.80867924        0.24710166
 C           -2.40989809        3.20464445        0.37740201
 C           -0.99312107        4.21704182       -1.13819139
 C            1.29013761        3.23881465       -1.16398875
 C            0.26764825        4.02894807       -1.81671382
 C            2.16891378        1.01782345       -1.70979298
 C            1.81624671        2.29829607       -2.14127308
 C            2.17546120       -1.38055063       -2.05142630
 C            2.02231945       -0.08109611       -2.56348394
 C            0.89912810       -3.46092795       -1.90142093
 C            1.57915274       -2.46672546       -2.70255543
 C           -1.22394579       -2.69622681       -0.99155145
 C           -1.89695052       -1.46606703       -1.08750464
 C           -0.51305609       -3.18462177       -2.08134036
 C           -1.85014713       -0.71428454       -2.26663050
 C           -2.61469408        1.23552957       -1.06009009
 C           -2.68720201        2.62248865       -0.91940353
 C           -2.01025671        3.47205795       -1.87273914
 C           -2.04598679        0.67292354       -2.21282473
 C           -0.02074079        3.39408055       -3.08710858
 C            1.05863014        2.46515679       -3.37366810
 C           -1.36681802        2.85620719       -3.00537192
 C           -1.52983896        1.49610508       -3.23483377
 C            1.47335578        0.11228395       -3.83406836
 C            0.74123689        1.33136432       -4.10209565
 C           -0.66040000        0.94234075       -4.16631082
 C            0.70354279       -2.24530560       -3.83316868
 C           -0.64668896       -2.53690083       -3.36832498
 C           -1.39620781       -1.30324712       -3.44461807
 C            0.67920991       -0.93759803       -4.43675090
 C           -0.70087753       -0.47962500       -4.40551738
