   70
C70 / DATE: 7/ 1/2024 / Origin: Program Fullerene / C70 from database
 C            1.56878823        0.05909861        4.63205807
 C            0.76652192       -1.14536305        4.59410598
 C            1.56452290       -2.17361270        3.95952678
 C            2.68277638       -0.12809361        3.71404266
 C            2.64067867       -1.49360243        3.24520596
 C            2.63104334        0.93519086        2.73468887
 C            0.75370850        1.13934687        4.11384752
 C            1.53311320        1.81085109        3.10317925
 C           -0.51997884       -0.81754900        4.00163335
 C           -0.53337776        0.60469537        3.71374805
 C           -1.05594817       -1.69247688        3.06789307
 C            0.89030330       -3.19423367        3.30897065
 C           -0.50441433       -2.97433436        2.94793184
 C            1.53345523       -3.80993818        2.16425119
 C            2.82426116       -1.75252452        1.88771379
 C            2.49569468       -3.02325215        1.41651667
 C            2.80616244        0.63946809        1.37920235
 C            2.98185289       -0.69370273        0.97736215
 C            2.38595494        1.60217912        0.44468429
 C            0.85797830        2.41199876        2.06307367
 C            1.59002554        2.65063362        0.91719292
 C           -1.07751617        1.05222778        2.51038333
 C           -0.51086128        2.17089454        1.90319538
 C           -1.86196792       -1.18881402        2.04532802
 C           -1.83258076        0.17918077        1.72726475
 C           -2.43119906       -2.08776299        1.15748057
 C           -0.77996245       -3.77466861        1.76540722
 C            0.49460920       -4.23116764        1.24028602
 C           -1.73383177       -3.32726267        0.86856518
 C            2.21371735       -3.22421153        0.00689542
 C            0.88992427       -3.81471346       -0.09680290
 C            3.09202513       -0.98112185       -0.37969904
 C            2.57437255       -2.23949400       -0.89057827
 C            2.40525984        1.31253237       -0.92917051
 C            2.77146300        0.04297536       -1.35599506
 C            1.71264535        2.13785883       -1.82239974
 C            1.03106476        3.54364446        0.02679365
 C            1.32366921        3.39525231       -1.37507452
 C           -1.12256355        2.71496380        0.77457948
 C           -0.40434781        3.71254190        0.11941290
 C           -2.36587523        0.64058897        0.50994918
 C           -2.02058261        1.92416302        0.03830393
 C           -2.95558830       -1.60425947       -0.09622404
 C           -3.09446999       -0.23916470       -0.30462533
 C           -1.39846977       -3.28750561       -0.54492224
 C           -0.06483458       -3.23225077       -0.93123941
 C           -2.34266436       -2.38716469       -1.15765527
 C            1.66986654       -1.92299276       -1.97913147
 C            1.99511711       -0.58086203       -2.41240330
 C            0.33068440       -2.30496281       -1.90400635
 C            1.07429682        1.55758549       -2.93043316
 C            1.01216086        0.16963820       -3.03101165
 C            0.26061952        2.31987075       -3.76710916
 C            0.28401138        4.12997658       -2.06846694
 C           -0.85465283        4.20074799       -1.15984162
 C           -0.20042351        3.62077132       -3.32928718
 C           -2.47704423        2.36429646       -1.21996508
 C           -1.95408209        3.52370932       -1.80011131
 C           -1.64592036        3.53882798       -3.22114955
 C           -3.39267761        0.13358613       -1.60880586
 C           -3.22686893        1.50660785       -2.01739258
 C           -1.99209755       -1.71375192       -2.31314909
 C           -0.62739228       -1.55484568       -2.60556417
 C           -0.20208577       -0.44002479       -3.34833919
 C           -2.86895076       -0.70391245       -2.67911309
 C           -0.87217609        1.67241438       -4.40461099
 C           -2.06922502        2.42080724       -4.03543100
 C           -3.00295315        1.48041380       -3.45633117
 C           -1.12245973        0.26792929       -4.11939419
 C           -2.52230431        0.15212846       -3.78523967
