   70
C70 / DATE: 7/ 1/2024 / Origin: Program Fullerene / C70 from database
 C            1.31430059       -0.08469001        4.37956602
 C            2.61266986       -0.40248321        3.83073300
 C            2.56950445       -1.77272409        3.34677365
 C            0.46865974       -1.26154484        4.23339188
 C            1.19117016       -2.22561136        3.43174578
 C           -0.82710995       -0.80695910        3.77015345
 C            0.58183540        1.03742295        3.82420027
 C           -0.81279758        0.64380259        3.83775353
 C            1.08528296        1.71337614        2.70929543
 C            3.12714454        0.42056854        2.75734808
 C            2.43288301        1.55864561        2.34738970
 C            3.24271729       -1.81487230        2.05698784
 C            3.66243259       -0.46243246        1.73498638
 C            2.70774485       -2.60701763        1.05584215
 C            0.58821895       -2.74694765        2.29272484
 C            1.40652260       -3.21809207        1.26704936
 C           -1.41461574       -1.41999273        2.66457485
 C           -0.76302006       -2.48729087        2.03352025
 C           -2.45872375       -0.75512012        2.01189276
 C           -1.69981664        1.33905291        3.03909320
 C           -2.69994374        0.58574543        2.31192452
 C            0.18744777        2.34239680        1.83348934
 C           -1.17389596        2.32176927        2.10608352
 C            0.61958123        2.79266420        0.58902373
 C            2.89645390        2.17974488        1.19256192
 C            1.98134257        2.97593786        0.40216472
 C            3.64677587       -0.00815872        0.41837161
 C            3.66313994        1.37311232        0.25552610
 C            2.74188395       -2.13264303       -0.31643645
 C            3.08270399       -0.80965477       -0.58947787
 C            0.84121212       -3.48609842       -0.04051253
 C            1.61011350       -2.72355953       -1.01073742
 C           -1.36388333       -3.09507087        0.93598540
 C           -0.53389360       -3.54164715       -0.17275099
 C           -3.06314968       -1.32111163        0.88645633
 C           -2.57123272       -2.51809467        0.37173137
 C           -3.91574607       -0.54273891        0.10183375
 C           -3.18206399        1.46652714        1.26992083
 C           -2.11112775        2.41262794        0.99955169
 C           -3.85785090        0.90691390        0.20370289
 C           -0.25833273        2.77330180       -0.51028387
 C           -1.62619965        2.53960420       -0.30140645
 C            0.22941125        2.95194986       -1.81517463
 C            2.51711222        3.02218727       -0.93872686
 C            3.47880767        1.93590927       -1.06122880
 C            1.60131834        2.90811456       -2.04893616
 C            2.61952054       -0.23062320       -1.77956812
 C            3.00504377        1.06521452       -2.11138227
 C            2.12503757        1.87419328       -2.92839345
 C            0.94875661       -1.96952897       -1.97433128
 C            1.57956214       -0.84064832       -2.49365661
 C           -1.13723288       -3.04074855       -1.39190435
 C           -2.51141169       -2.71699014       -1.07095250
 C           -0.41310614       -2.18595957       -2.22081107
 C           -4.08213663       -0.86799419       -1.30475016
 C           -3.20048026       -1.85147520       -1.90397797
 C           -3.60069250        1.41935479       -1.12814411
 C           -2.45053169        2.17101800       -1.36991186
 C           -3.95670180        0.36693998       -2.06117549
 C           -0.59719664        2.66772153       -2.89723184
 C           -1.96217525        2.23765476       -2.67037040
 C            1.23809140        1.23479557       -3.77572628
 C            1.00467337       -0.18937483       -3.58164945
 C           -0.05700110        1.85554476       -3.97469067
 C           -1.10045087       -1.36543716       -3.12054524
 C           -2.48499920       -1.20068352       -2.99214616
 C           -3.07422389        0.11929248       -3.18302753
 C           -2.25288335        1.15288558       -3.60407215
 C           -0.38549375       -0.46264412       -3.90450958
 C           -1.00895525        0.80067325       -4.25474957
