   70
C70 / DATE: 7/ 1/2024 / Origin: Program Fullerene / C70 from database
 C            1.59278900        0.27412476        5.06680084
 C            0.80820154       -0.93166595        4.87202523
 C            1.66307425       -1.88509256        4.20409971
 C            2.73162525        0.20125605        4.16536761
 C            2.83298397       -1.16659419        3.71451361
 C            2.57379150        1.24968711        3.17327994
 C            0.78064627        1.39693514        4.64356108
 C            1.54874052        2.15068654        3.67160300
 C           -0.44280807       -0.55906310        4.22978754
 C           -0.51851889        0.89118751        4.23272797
 C           -0.87181797       -1.25566848        3.09741202
 C            1.11613901       -2.61559640        3.08125504
 C           -0.21667490       -2.43915891        2.72471764
 C            2.92409182       -1.42198107        2.29056385
 C            2.10465054       -2.58248323        2.01985426
 C            2.59299468        0.93544161        1.81052716
 C            2.87721421       -0.37069235        1.38245724
 C            2.06900300        1.86074877        0.89684434
 C            0.83710624        2.89686364        2.74898329
 C            1.28338844        2.90769221        1.36788265
 C           -1.15194469        1.52377017        3.17149703
 C           -0.60285018        2.71492478        2.69404857
 C           -1.71452149       -0.60616215        2.18261219
 C           -1.95458071        0.76717275        2.31772046
 C           -2.22825132       -1.31136138        1.08591099
 C           -0.61638611       -3.08340919        1.56385416
 C           -1.78130951       -2.60626371        0.85299197
 C            1.65570934       -2.78496520        0.71907419
 C            0.40338422       -3.36645166        0.56344036
 C            2.66583928       -0.69140248        0.04767214
 C            2.11065946       -1.93348373       -0.28818738
 C            2.02863774        1.54333816       -0.46331426
 C            2.59924195        0.34363436       -0.87320087
 C            1.11732099        2.19654158       -1.30677214
 C            0.15223985        3.34440117        0.57227646
 C           -1.03508133        3.22880345        1.40807810
 C            0.07429729        2.94914502       -0.75714408
 C           -2.68664374        1.43693672        1.34375490
 C           -2.18911787        2.70933190        0.84570932
 C           -2.95356070       -0.65013595        0.08787004
 C           -3.22914960        0.70181477        0.21820517
 C           -3.11059828       -1.23651331       -1.16744030
 C           -1.65041445       -3.07881720       -0.51177481
 C           -0.23797792       -3.33231923       -0.73869670
 C           -2.37402953       -2.44387530       -1.50278152
 C            1.66488301       -2.13118126       -1.59556570
 C            0.40149685       -2.70233484       -1.80409305
 C            2.60820203        0.01915664       -2.22051171
 C            2.22632890       -1.33216145       -2.58499984
 C            1.08163149        1.87661889       -2.66706791
 C            1.96298350        0.91404860       -3.15871539
 C           -0.02747838        2.26556109       -3.41989087
 C           -1.17575771        2.93756584       -1.37556044
 C           -2.30174970        2.68406351       -0.59984902
 C           -3.14909345        1.56044470       -0.95462983
 C           -1.24568609        2.63146698       -2.72592364
 C           -3.13740690       -0.39019117       -2.35462954
 C           -2.99793914        0.99217604       -2.21707090
 C           -2.28312161        1.71358085       -3.17296297
 C           -1.74725571       -2.22320046       -2.79358143
 C           -0.36260463       -2.33532704       -2.91849550
 C           -2.43477316       -1.10439955       -3.41494437
 C            1.60864731       -1.27892086       -3.89359808
 C            1.60931120        0.11127236       -4.31898249
 C            0.25887209       -1.77848437       -4.03163750
 C           -0.43008649        1.50591832       -4.59327289
 C           -1.79413386        1.05180826       -4.36983045
 C           -1.79614321       -0.39657669       -4.42372119
 C            0.35676691        0.36203015       -4.99991449
 C           -0.47342637       -0.82421595       -4.85021884
