   70
C70 / DATE: 7/ 1/2024 / Origin: Program Fullerene / C70 from database
 C            1.49389551       -0.02949838        4.49961156
 C            0.68524760       -1.18151871        4.13115053
 C            1.49034185       -2.01053238        3.27733986
 C            2.66109658       -0.02285438        3.63945545
 C            2.77258687       -1.34717488        3.07945491
 C            2.53644027        1.07909052        2.70943153
 C            0.72276081        1.15121699        4.18490989
 C            1.40389919        1.87926269        3.12905773
 C           -0.57319716       -0.69723415        3.61174852
 C           -0.63437735        0.72101892        3.91663906
 C           -1.02363794       -1.13093163        2.35809298
 C            0.90624980       -2.61437869        2.16971341
 C           -0.25667835       -2.04412737        1.61118717
 C            1.79722267       -3.27738390        1.33829753
 C            3.34823170       -1.48733706        1.82609892
 C            3.13739739       -2.72471386        1.23625938
 C            2.71146582        0.80453775        1.35986863
 C            3.40590395       -0.35331397        0.99465099
 C            1.92611667        1.46952013        0.40909064
 C            0.59791398        2.47316321        2.16903090
 C            0.93170438        2.36456292        0.81395177
 C           -1.37793649        1.50769497        3.06191890
 C           -0.74562324        2.61141310        2.49239689
 C           -2.00927715       -0.36300350        1.72547380
 C           -2.34369278        0.87008540        2.29796635
 C           -2.36592048       -0.63137558        0.39858140
 C           -0.57356485       -2.27306726        0.25951465
 C           -1.65029022       -1.59054474       -0.33717013
 C            1.38828345       -3.66130903        0.01324013
 C            0.20650569       -3.15561619       -0.50691849
 C            3.63139952       -2.96588274       -0.09758775
 C            2.58148054       -3.65841288       -0.82298303
 C            3.77616433       -0.49436023       -0.34020116
 C            4.03581510       -1.81938084       -0.87867722
 C            2.02933940        1.12411781       -0.93912183
 C            3.04675164        0.26231519       -1.34478316
 C            0.95406706        1.37156906       -1.79861649
 C            0.02695187        2.86458504       -0.13193596
 C           -0.05083722        2.26679035       -1.40307735
 C           -1.51117943        3.42879599        1.68286393
 C           -1.02278155        3.65947852        0.33486765
 C           -3.27061852        1.69049417        1.67829464
 C           -2.91578835        3.09473998        1.56298185
 C           -3.36904328        0.13505492       -0.21664980
 C           -3.84653723        1.27996536        0.41719596
 C           -3.57506155        0.02854362       -1.58928486
 C           -1.95134457       -1.80747920       -1.69227296
 C           -2.86077716       -0.97885678       -2.33871213
 C            0.07037861       -3.17101344       -1.88761094
 C           -1.02146320       -2.45341856       -2.49880500
 C            2.49913530       -3.07135702       -2.14593202
 C            3.38105589       -1.91441787       -2.16984172
 C            2.81598822       -0.61016615       -2.48120840
 C            1.24557011       -2.94128440       -2.71769550
 C            0.80087078        0.59235083       -2.95459513
 C           -0.47785106       -1.74265102       -3.65070472
 C            1.58534745       -0.54896638       -3.11857374
 C            0.95721440       -1.74187548       -3.47453636
 C           -2.45362887       -0.37234962       -3.59458560
 C           -0.37584910        0.67683167       -3.68865681
 C           -1.08244665       -0.55567807       -4.01258361
 C           -1.15606348        2.50201069       -2.24305326
 C           -3.61298706        1.24401974       -2.40241517
 C           -1.36424570        1.67389407       -3.34005443
 C           -2.66775253        1.05042555       -3.47712421
 C           -2.17813860        3.89047102       -0.50442925
 C           -3.36475654        3.57915957        0.27737232
 C           -4.03886745        2.47965833       -0.38159740
 C           -2.27924739        3.16024851       -1.74360638
 C           -3.55933189        2.45637976       -1.74210785
