   70
C70 / DATE: 7/ 1/2024 / Origin: Program Fullerene / C70 from database
 C            1.33253880       -0.15375838        4.24387096
 C            2.43801220       -0.32575781        3.32565628
 C            2.19377600       -1.53744626        2.55471488
 C            0.51525136       -1.34945421        4.16168682
 C            0.94491566       -2.10528300        2.99780588
 C           -0.86926393       -0.93679038        4.22388752
 C            0.46373918        0.99324183        4.07352356
 C           -0.89530084        0.49368813        3.94094161
 C            0.88628747        2.02420132        3.24947483
 C            2.94827099        0.77950814        2.65489356
 C            2.22445031        1.98003104        2.67148618
 C            3.78841976        0.51399073        1.58038681
 C            2.50216622       -1.52538332        1.20326366
 C            3.56409296       -0.71467341        0.83143774
 C            1.50027616       -1.81490854        0.26466288
 C           -0.01061477       -2.47352852        2.05988011
 C            0.23928061       -2.26912490        0.69399206
 C           -1.79749758       -1.73615551        3.58127491
 C           -1.32213466       -2.60213713        2.50520024
 C           -2.99998165       -1.09419780        3.09818667
 C           -1.72000549        0.97075739        2.91680968
 C           -2.89907804        0.28318221        2.65164094
 C           -0.01555765        2.51870718        2.22159720
 C           -1.18600381        1.81576147        1.94070959
 C            2.19264225        2.83554623        1.49105677
 C            0.79864144        3.01722543        1.12695532
 C            4.07901365        1.56617325        0.62874897
 C            3.13001296        2.65092386        0.48805193
 C            3.79666764       -0.43795548       -0.56377708
 C            4.23751943        0.94387810       -0.67102686
 C            1.72629094       -1.56031565       -1.09824642
 C            2.90468173       -0.91165531       -1.51425936
 C            0.74132818       -1.89540253       -2.03842313
 C           -0.78244495       -2.49083035       -0.24395361
 C           -0.51045678       -2.34872133       -1.61290175
 C           -2.39018929       -2.73214103        1.54256720
 C           -3.48152999       -1.87949088        1.98459984
 C           -2.09768391       -2.74935973        0.18626161
 C           -3.48769766        0.35356630        1.32486119
 C           -4.04609437       -0.95727704        1.02061364
 C           -1.64971751        1.74957732        0.61917476
 C           -2.83059307        1.05846085        0.31811043
 C            0.38979954        2.77070322       -0.17634560
 C           -0.92462686        2.37403846       -0.40167697
 C            2.69621800        2.67332116       -0.90113503
 C            3.57948024        1.79092244       -1.64681427
 C            1.33320179        2.68481219       -1.20744975
 C            2.93671748       -0.27423641       -2.74962803
 C            3.07287985        1.17334169       -2.77673108
 C            0.88655729       -1.50801743       -3.37431963
 C            1.96361193       -0.62575373       -3.75095033
 C           -0.27603982       -1.03787144       -4.10017050
 C           -1.55585299       -2.37740694       -2.54159688
 C           -1.51523123       -1.47490672       -3.67474565
 C           -3.15957632       -2.45773797       -0.66300380
 C           -4.04858130       -1.36532632       -0.30057650
 C           -2.92162665       -2.35848212       -2.07964958
 C           -3.17095378        0.80327999       -1.01481855
 C           -2.57494404       -0.50087717       -3.46025325
 C           -3.86598578       -0.36360525       -1.32848812
 C           -3.50579317       -1.10039866       -2.52514544
 C           -1.39691702        2.34537618       -1.70420349
 C           -2.52766371        1.50081220       -2.03264984
 C           -2.23950812        0.83801933       -3.29920381
 C            0.92396796        2.31330929       -2.49335833
 C            1.83048661        1.66720882       -3.33396498
 C            1.35902371        0.61589795       -4.21640428
 C           -0.06627725        0.38332713       -4.33198869
 C           -0.43781269        2.26488993       -2.79034349
 C           -0.94098361        1.29868787       -3.75978216
