   70
C70 / DATE: 7/ 1/2024 / Origin: Program Fullerene / C70 from database
 C            1.60723904        0.00413163        4.72557874
 C            0.79879318       -1.19021202        4.57123505
 C            1.42539361       -2.02891565        3.56755921
 C            2.66018690       -0.04118724        3.72471577
 C            2.54322981       -1.28367624        3.00335989
 C            2.59910054        1.18099053        2.96625970
 C            0.76301351        1.14682772        4.42310685
 C            1.44775838        1.94312288        3.43042405
 C           -0.57081910       -0.77486315        4.35692973
 C           -0.55858300        0.65730034        4.09793143
 C           -1.37494172       -1.57899039        3.56893699
 C            0.62055307       -2.76995586        2.70410017
 C           -0.77116133       -2.66848355        2.80666922
 C            1.18340330       -3.19088803        1.50297954
 C            2.71455103       -1.29254429        1.62174902
 C            2.31303153       -2.44602532        0.96655641
 C            2.84158503        1.14650533        1.59683892
 C            2.77979812       -0.08024945        0.90698704
 C            2.53931424        2.31378061        0.91260510
 C            0.69729221        2.61431002        2.47166583
 C            1.40509425        3.09421924        1.37526397
 C           -1.18379130        1.15146266        2.95367355
 C           -0.65414855        2.27620421        2.30710368
 C           -2.34675068       -0.94691039        2.69995528
 C           -2.16963016        0.38323640        2.32357097
 C           -1.60729154       -2.88282555        1.62994213
 C           -2.69934580       -1.92532024        1.69192067
 C            0.32749528       -3.54342035        0.38388311
 C           -1.01319802       -3.17222602        0.40425180
 C            2.20741480       -2.45774608       -0.47320459
 C            1.11077110       -3.34479921       -0.82038984
 C            2.66226293       -0.08510582       -0.50021672
 C            2.36821071       -1.27640255       -1.18263307
 C            2.51960844        2.31301429       -0.52774994
 C            2.71862597        1.12371411       -1.21080989
 C            0.69779926        3.59559342        0.21240239
 C            1.44912600        3.19716695       -0.96358601
 C           -1.37968096        2.85499727        1.26910594
 C           -0.68094576        3.53108916        0.18672927
 C           -2.78361028        0.84857745        1.15798169
 C           -2.49163335        2.12294336        0.69032045
 C           -3.26779417       -1.47988138        0.51319539
 C           -3.42408353       -0.04935641        0.30673118
 C           -1.65399298       -2.80819409       -0.78605238
 C           -2.82188024       -2.05208612       -0.74335347
 C            0.45204092       -3.13787278       -2.01797066
 C           -0.98830553       -2.93910007       -2.00249977
 C            1.93581863       -1.23991216       -2.50908057
 C            1.00584691       -2.17923113       -2.95532494
 C            2.44700163        1.13949306       -2.57573319
 C            2.15436891       -0.09866616       -3.26293852
 C            0.79548564        2.89642404       -2.15547824
 C            1.52086005        2.14312344       -3.07791638
 C           -1.34778216        3.20143530       -1.05829982
 C           -2.50936099        2.38504080       -0.74228659
 C           -0.61053369        2.91187935       -2.20473635
 C           -3.41479388        0.18931332       -1.12847723
 C           -3.07540652       -1.06706454       -1.78246799
 C           -2.90030503        1.38293620       -1.62989753
 C           -1.32238285       -2.04497456       -3.10562752
 C           -0.08369322       -1.75652157       -3.81748512
 C           -2.27873991       -1.04435762       -2.92174087
 C            1.25644637        0.20924797       -4.36745944
 C            0.87812783        1.60897411       -4.25901187
 C            0.04280676       -0.57277813       -4.52906179
 C           -1.28915307        2.28552292       -3.24910061
 C           -2.40318968        1.40614307       -2.93193980
 C           -2.17705031        0.14949794       -3.62990234
 C           -0.55917728        1.69343841       -4.35284367
 C           -1.07629932        0.34908660       -4.55694343
