   70
C70 / DATE: 7/ 1/2024 / Origin: Program Fullerene / C70 from database
 C            1.70207350        0.00000000        4.83266078
 C            0.85164440       -1.17035041        4.71822300
 C            1.20357401       -1.86810139        3.49062644
 C            2.59419371       -0.00000000        3.69268691
 C            2.39974036       -1.24039062        2.96228051
 C            2.39974036        1.24039062        2.96228051
 C            0.85164440        1.17035041        4.71822300
 C            1.20357401        1.86810139        3.49062644
 C           -0.51666361       -0.73206597        4.89379304
 C           -0.51666361        0.73206597        4.89379304
 C           -1.50827008       -1.41533402        4.20241178
 C            0.19211714       -2.24709328        2.60741399
 C           -1.13489122       -2.22222643        3.04374496
 C            0.46925376       -2.31534315        1.23440804
 C            2.56396296       -1.18736750        1.58760171
 C            1.74496171       -1.97226038        0.77615840
 C            2.56396296        1.18736750        1.58760171
 C            3.05050458       -0.00000000        1.05544489
 C            1.74496171        1.97226038        0.77615840
 C            0.19211714        2.24709328        2.60741399
 C            0.46925376        2.31534315        1.23440804
 C           -1.50827008        1.41533402        4.20241178
 C           -1.13489122        2.22222643        3.04374496
 C           -2.74430385       -0.72502457        3.88678169
 C           -2.74430385        0.72502457        3.88678169
 C           -2.20150806       -2.11630325        2.06613098
 C           -3.18138360       -1.17239193        2.57694158
 C           -0.58520770       -2.41476764        0.31999841
 C           -1.86870279       -2.04932070        0.72054376
 C           -0.31401795       -2.43858117       -1.04875504
 C            2.00476806       -1.97301487       -0.59571319
 C            1.01327745       -2.38995802       -1.48386160
 C            3.40516175       -0.00000000       -0.27679404
 C            3.03456975       -1.15579174       -1.06490100
 C            2.00476806        1.97301487       -0.59571319
 C            3.03456975        1.15579174       -1.06490100
 C            1.01327745        2.38995802       -1.48386160
 C           -0.58520770        2.41476764        0.31999841
 C           -0.31401795        2.43858117       -1.04875504
 C           -2.20150806        2.11630325        2.06613098
 C           -3.18138360        1.17239193        2.57694158
 C           -3.47991043        0.00000000        1.77551232
 C           -1.86870279        2.04932070        0.72054376
 C           -2.59504740       -1.18800075       -0.09765177
 C           -3.06677146       -0.00000000        0.45108401
 C           -2.59504740        1.18800075       -0.09765177
 C           -1.34061490       -2.06608300       -1.92184117
 C           -2.31494472       -1.18946575       -1.45652785
 C           -1.15269373       -2.17107853       -3.29563550
 C            1.28569368       -2.36791185       -2.85271016
 C            0.18411747       -2.40994796       -3.79541764
 C            3.04620178       -0.72936260       -2.45279831
 C            3.04620178        0.72936260       -2.45279831
 C            2.26005839       -1.41706700       -3.36239666
 C            1.28569368        2.36791185       -2.85271016
 C            2.26005839        1.41706700       -3.36239666
 C            0.18411747        2.40994796       -3.79541764
 C           -1.34061490        2.06608300       -1.92184117
 C           -2.31494472        1.18946575       -1.45652785
 C           -2.51541888        0.00000000       -2.15030333
 C           -1.15269373        2.17107853       -3.29563550
 C           -1.77362945       -1.17422356       -4.15392196
 C           -2.35859340       -0.00000000       -3.53050212
 C           -1.77362945        1.17422356       -4.15392196
 C            0.45163786       -1.43739228       -4.84565529
 C            1.64430223       -0.69751861       -4.46483769
 C            1.64430223        0.69751861       -4.46483769
 C            0.45163786        1.43739228       -4.84565529
 C           -0.78362164       -0.72589879       -5.11932817
 C           -0.78362164        0.72589879       -5.11932817
