   70
C70 / DATE: 7/ 1/2024 / Origin: Program Fullerene / C70 from database
 C            1.72607262       -0.22047354        5.30132740
 C            0.88465649       -1.39197145        5.46255106
 C            1.30485709       -2.36962917        4.47907366
 C            2.60175588       -0.44909563        4.16198507
 C            2.34579103       -1.77525948        3.65191353
 C            2.44669992        0.66208387        3.25389068
 C            0.86365903        0.89811111        4.96831241
 C            1.40580596        1.52996740        3.77839106
 C           -0.48022831       -1.01376835        5.13355760
 C           -0.50813216        0.42280923        4.93128844
 C            0.11004995       -2.85891194        3.81564053
 C           -0.93882618       -1.88046720        4.05594910
 C            0.25970224       -3.34005171        2.53095426
 C            2.26542969       -1.96751805        2.27398996
 C            1.50540127       -3.04514165        1.84327124
 C            2.45756385        0.42470860        1.88493572
 C            2.46243420       -0.88665538        1.39184757
 C            1.96698011        1.42841792        1.06765544
 C            0.52809733        2.10735716        2.86685169
 C            0.96151143        2.26941949        1.55486671
 C           -1.34097781        0.92800980        3.94522386
 C           -0.84262404        1.98588748        3.08223159
 C           -1.61914515       -1.31425243        2.97133013
 C           -2.05478161        0.00102520        3.07782704
 C           -0.78836668       -3.07191481        1.56705892
 C           -1.55597985       -1.92489196        1.70900404
 C            1.23852041       -3.18407103        0.43846950
 C           -0.19799272       -3.35049506        0.28256262
 C            2.29705759       -1.08595842        0.00364289
 C            1.88124267       -2.34453651       -0.45551657
 C            2.14041956        1.31234272       -0.30291586
 C            2.21499163        0.03189670       -0.85733187
 C            1.72747047        2.38105253       -1.08484657
 C            0.09247153        2.85816550        0.64174247
 C            0.60613966        3.17175476       -0.60920757
 C           -1.72936572        2.01810884        1.93245983
 C           -2.40107636        0.73174483        1.87849539
 C           -1.26105643        2.54134997        0.73498489
 C           -1.95575202       -1.23031767        0.55179095
 C           -2.44072339        0.07590632        0.65686611
 C           -0.76479906       -2.81435592       -0.85984873
 C           -1.68125427       -1.76038898       -0.72936195
 C            1.45761896       -2.46958155       -1.76649969
 C            0.06193107       -2.82457883       -1.97051525
 C            2.00442765       -0.14785420       -2.23745167
 C            1.76224326       -1.42806319       -2.71438739
 C            1.57571720        2.21254207       -2.51345538
 C            1.69939950        0.94344059       -3.06588033
 C           -0.30748931        3.32804622       -1.72733499
 C            0.47506540        3.07291869       -2.92512988
 C           -1.91820245        2.15142411       -0.42766357
 C           -2.46312720        0.86472605       -0.48296451
 C           -1.58857101        2.79253216       -1.61749173
 C           -2.04799522       -1.02877540       -1.88023772
 C           -2.60288472        0.24683760       -1.71369014
 C           -0.37599211       -2.17317946       -3.17381780
 C            0.81129030       -1.60826882       -3.79262399
 C           -1.53433074       -1.41082559       -3.13540616
 C            1.18923167        0.72370335       -4.35090499
 C            0.63349795       -0.57646043       -4.69154201
 C           -0.18880204        2.79731356       -4.11026696
 C            0.32487929        1.73169073       -4.95053532
 C           -2.25801109        2.40765400       -2.77437008
 C           -2.82122385        1.06858191       -2.81259759
 C           -1.63370595        2.65978623       -4.06111715
 C           -1.81950241       -0.65649618       -4.27199312
 C           -0.71694999       -0.34655384       -5.17163909
 C           -0.81040784        1.04905252       -5.55000791
 C           -2.62079411        0.53713458       -4.13954026
 C           -2.02101202        1.58326003       -4.95384958
