   70
C70 / DATE: 7/ 1/2024 / Origin: Program Fullerene / C70 from database
 C            1.62503206        0.05765764        4.81146795
 C            0.83080773       -1.15010090        4.67294128
 C            1.65133584       -2.11902916        3.98615695
 C            2.74696782       -0.05050856        3.89380415
 C            2.81972751       -1.42399546        3.45874739
 C            2.59603010        0.98241273        2.88905872
 C            0.80706960        1.17065078        4.37048110
 C            1.51147611        1.85294435        3.30327101
 C           -0.44644060       -0.78363021        4.08236118
 C           -0.51902963        0.66777830        4.07500277
 C           -0.93012103       -1.48839278        2.97434848
 C            1.06283290       -2.84934612        2.88578997
 C           -0.27821961       -2.65988659        2.55816503
 C            2.87865108       -1.70008347        2.03458157
 C            2.03078620       -2.84871896        1.80521555
 C            2.70119703        0.66961455        1.53544318
 C            2.83631310       -0.65933821        1.10823182
 C            2.24336200        1.61145712        0.62325429
 C            0.74568590        2.44762325        2.30776870
 C            1.28925553        2.55312793        1.02907494
 C           -1.21390125        1.27731890        3.04346019
 C           -0.64133481        2.39123812        2.42506632
 C           -1.84045322       -0.84739796        2.11862407
 C           -2.11640134        0.50845018        2.31665693
 C           -2.32242624       -1.50450109        0.97900609
 C           -0.71311776       -3.29751527        1.40449591
 C           -1.86501373       -2.78510871        0.69337118
 C            1.55413149       -3.06837008        0.52210177
 C            0.28760847       -3.63576407        0.40508879
 C            2.52144226       -0.97868571       -0.21805046
 C            2.01617369       -2.25297200       -0.51226044
 C            2.42960610        1.37120055       -0.72885765
 C            2.44638711        0.04489089       -1.17221957
 C            2.13667254        2.40293205       -1.60514359
 C            0.59055450        3.28696412        0.06501627
 C            1.07300172        3.31710531       -1.24155730
 C           -1.40311901        3.08829696        1.49636903
 C           -0.76411204        3.55139533        0.27384775
 C           -2.98793700        1.16808163        1.46192112
 C           -2.70509509        2.55495791        1.13837807
 C           -3.06038579       -0.80829008        0.01366248
 C           -3.42154371        0.51299114        0.24565163
 C           -3.08476502       -1.26326327       -1.30489440
 C           -1.73669343       -3.20927747       -0.69128932
 C           -0.36788792       -3.66264852       -0.88966168
 C           -2.36487211       -2.46709492       -1.67932913
 C            1.60529670       -2.54457527       -1.80657198
 C            0.34330228       -3.24042913       -2.00495825
 C            2.18152734       -0.26605062       -2.51434838
 C            1.72507692       -1.53812104       -2.84107331
 C            2.02155250        2.12776657       -3.01973113
 C            2.01310004        0.74965228       -3.45347177
 C            0.11487016        3.28916311       -2.33204299
 C            0.79202477        2.74893227       -3.49104640
 C           -1.69898601        3.35017689       -0.82530424
 C           -2.89041727        2.73415547       -0.29122399
 C           -3.31034369        1.47112164       -0.84631214
 C           -1.19648471        2.92053229       -2.04750853
 C           -2.93280696       -0.29776070       -2.38175829
 C           -2.76815893        1.04516528       -2.05314784
 C           -1.76214972        1.79721522       -2.68232997
 C           -1.68211494       -2.20547342       -2.93883541
 C           -0.35541813       -2.58916476       -3.09979911
 C            0.58339670       -1.68037999       -3.73421950
 C           -2.12298681       -0.90550328       -3.42324619
 C            0.95335353        0.62184373       -4.44007347
 C            0.09313202        1.78567685       -4.30951339
 C           -1.20762103        1.31607369       -3.87216084
 C            0.10825454       -0.55743665       -4.39902272
 C           -1.25663732       -0.10775062       -4.15692023
