   70
C70 / DATE: 7/ 1/2024 / Origin: Program Fullerene / C70 from database
 C            1.35903296       -0.13656985        4.30162341
 C            2.64262886       -0.35700844        3.66376577
 C            2.59468599       -1.65042037        3.00480267
 C            0.51650422       -1.28665745        4.01785970
 C            1.25299659       -2.18310762        3.15244369
 C           -0.76750900       -0.79894359        3.56177062
 C            0.60668915        1.05988705        3.96799791
 C           -0.72431845        0.65185770        3.55293043
 C            1.23359208        2.09131212        3.28618482
 C            3.12290774        0.61632239        2.69921980
 C            2.51961234        1.86255246        2.63149788
 C            3.12264824       -1.49132559        1.66139685
 C            3.42450471       -0.08487472        1.46238249
 C            2.51112105       -2.18141707        0.62305375
 C            0.62444852       -2.68621974        2.01986310
 C            1.40884995       -2.99019662        0.91317939
 C           -1.39280666       -1.43487147        2.49852906
 C           -0.74890420       -2.48956040        1.83815249
 C           -2.40614649       -0.74874353        1.84105471
 C           -1.37062096        1.32378389        2.51521699
 C           -2.37131794        0.64976585        1.81329413
 C            0.44319883        2.92439301        2.39941330
 C           -0.81642738        2.49586530        1.97928205
 C            2.47747756        2.54883887        1.35433672
 C            1.36169677        3.47172349        1.42033332
 C            3.10692237        0.49679840        0.23467834
 C            2.69758630        1.83717773        0.17473263
 C            2.67311125       -1.69904831       -0.67451787
 C            2.92227974       -0.33657105       -0.87019398
 C            2.23223800       -2.48338600       -1.73672824
 C            0.83895394       -3.74331077       -0.10187420
 C            1.36797059       -3.61209986       -1.44621069
 C           -1.38005810       -3.09174845        0.74125431
 C           -0.61076877       -3.79593108       -0.19205930
 C           -3.19476406       -1.45249119        0.94049826
 C           -2.67411859       -2.69549541        0.39936362
 C           -3.89101414       -0.74854398       -0.12443921
 C           -3.11663874        1.34696970        0.87204819
 C           -3.77146114        0.62872100       -0.20642271
 C           -1.37414822        3.07259724        0.83163779
 C           -2.56633583        2.56828097        0.31447034
 C            0.84312741        3.95761452        0.23572108
 C           -0.59558359        3.92030657        0.04155491
 C            2.24100185        2.37904804       -1.03252916
 C            1.44503729        3.52546107       -1.01345915
 C            2.71552936        0.23221675       -2.12131153
 C            2.30974314        1.62255819       -2.20043364
 C            1.72053717       -1.84413812       -2.93619870
 C            1.96288523       -0.49708793       -3.12829511
 C            0.24585512       -3.56172829       -2.36746173
 C           -0.96974968       -3.76812498       -1.60650919
 C            0.37430698       -2.34668326       -3.15037542
 C           -3.10077338       -2.78214668       -0.98567866
 C           -3.72746482       -1.52269233       -1.34083614
 C           -2.10937805       -3.08305053       -1.99593082
 C           -0.69777478       -1.45379435       -3.19808974
 C           -2.97419199       -0.93997802       -2.43910034
 C           -1.96809371       -1.90271356       -2.84337162
 C           -3.30051248        1.21340664       -1.45025078
 C           -2.77019519        2.52393923       -1.12984093
 C           -2.64003496        0.40754579       -2.37753969
 C           -0.82680016        3.96709033       -1.39183425
 C            0.44408168        3.71216259       -2.04988499
 C           -1.81601389        3.07773291       -1.96704617
 C            1.23624977        1.70847376       -3.18463082
 C            0.85751317        0.35227202       -3.52420738
 C           -0.44870451       -0.08089713       -3.29761719
 C           -1.43695708        0.84648290       -2.93707277
 C            0.24158022        2.65636966       -3.02271862
 C           -1.13951919        2.21204964       -2.92087380
