   70
C70 / DATE: 7/ 1/2024 / Origin: Program Fullerene / C70 from database
 C            1.08021056       -0.05796761        4.64136652
 C            2.36202741       -0.35675191        4.06129978
 C            2.28795295       -1.71203706        3.53253132
 C            0.26762083       -1.25927443        4.51322413
 C            0.88477644       -2.05285631        3.47547332
 C           -1.09135427       -0.82233110        4.31739290
 C            0.30447039        1.01727077        4.06413964
 C           -1.06269060        0.63243179        4.31087552
 C            0.64388537        1.52375583        2.80031891
 C            2.82710930        0.46929176        2.96988694
 C            1.92489247        1.28903055        2.27902939
 C            3.04058822       -1.71010455        2.29712040
 C            3.67961888       -0.41180647        2.20384052
 C            2.45471115       -2.21977286        1.14516446
 C            0.27537767       -2.14704237        2.22265937
 C            1.06304636       -2.41309943        1.10449856
 C           -1.77932772       -1.21926009        3.10390401
 C           -1.05692527       -1.74689381        2.03906494
 C           -2.04641906        1.05612780        3.35689206
 C           -2.68831240       -0.13625936        2.83104589
 C           -0.36796282        2.04078533        1.97051716
 C           -1.69757836        2.02774979        2.43194683
 C           -0.10330218        2.24823656        0.60329374
 C            2.20442603        1.59979019        0.94468802
 C            1.15802043        1.94865499        0.08010762
 C            4.06992901        0.01149013        0.95055409
 C            3.44118050        1.20878745        0.42473822
 C            3.14325849       -2.02558893       -0.05161945
 C            4.03575043       -0.95322784       -0.13452981
 C            2.61392223       -2.57327254       -1.21563374
 C            0.44024635       -2.62722649       -0.11993254
 C            1.23675086       -3.02586896       -1.18441732
 C           -1.55381236       -1.57070434        0.73988139
 C           -0.83311544       -2.08177944       -0.34356015
 C           -3.23377000       -0.01156343        1.56519653
 C           -2.70136630       -0.78586599        0.51734978
 C           -2.71404847        2.34499480        1.54784321
 C           -3.65392398        1.27440962        1.26353580
 C           -1.13097512        2.64150888       -0.26566388
 C           -2.38346619        2.92123219        0.27022864
 C           -0.98634184        2.43775989       -1.64640922
 C            1.32659829        1.90480799       -1.31221997
 C            0.20254710        1.89567618       -2.13034593
 C            3.64149325        1.17324022       -1.00785758
 C            4.09491186       -0.16824817       -1.35100872
 C            2.52810296        1.48667320       -1.86721547
 C            2.82184081       -1.90285987       -2.49184224
 C            3.33948778       -0.61606582       -2.50220177
 C            2.48577903        0.48835743       -2.91792529
 C            0.72088641       -2.95675036       -2.52809333
 C            1.67088811       -2.18899287       -3.32244675
 C           -1.34414100       -1.95165771       -1.64206744
 C           -0.58751827       -2.37552769       -2.73782851
 C           -3.10952846       -0.51571368       -0.80177118
 C           -2.41758287       -1.08765933       -1.87970318
 C           -4.21696747        1.52608365       -0.03143155
 C           -3.57347789        2.72948230       -0.53633993
 C           -4.03836891        0.50928353       -1.03759330
 C           -2.08316446        2.54284168       -2.50414904
 C           -3.42063347        2.54834505       -1.95757558
 C           -3.99459223        1.24946770       -2.27907012
 C           -2.57708207       -0.57151290       -3.17252144
 C           -2.15133588        1.65619523       -3.64326346
 C           -3.22157695        0.70818092       -3.36453299
 C            0.21392426        1.12869374       -3.30819054
 C            1.25685743        0.22663196       -3.51481866
 C            0.93596191       -1.07936539       -3.89525986
 C           -0.45748323       -1.48838787       -3.87862488
 C           -0.98173588        0.86837132       -3.96590003
 C           -1.41917014       -0.51234348       -4.03604472
