   70
C70 / DATE: 7/ 1/2024 / Origin: Program Fullerene / C70 from database
 C            1.31748337       -0.05778623        4.25768603
 C            2.58566563       -0.44892966        3.68641176
 C            2.49807977       -1.85275094        3.31587464
 C            0.47705556       -1.23904150        4.32346343
 C            1.14608558       -2.30372585        3.59596292
 C           -0.86019804       -0.85607721        3.91272847
 C            0.55678359        0.98503488        3.59822764
 C           -0.79863155        0.50548962        3.40153705
 C            1.13308549        1.72937730        2.57902422
 C            3.07173549        0.28026817        2.53377619
 C            2.42719603        1.43923009        2.11701301
 C            3.02084564       -1.99326855        1.96925587
 C            3.43672500       -0.67712286        1.51310787
 C            2.36999499       -2.83735371        1.08583151
 C            0.43693622       -2.99748178        2.61648069
 C            1.09723828       -3.43316448        1.46814462
 C           -1.61932134       -1.78327190        3.22450572
 C           -0.95512001       -2.93452371        2.62322471
 C           -2.58240400       -1.30363768        2.25800707
 C           -1.46522278        0.83723690        2.21574947
 C           -2.42050783       -0.03857986        1.69245097
 C            0.27560763        2.43856585        1.74502632
 C           -0.96281114        1.87415067        1.41866623
 C            0.84341330        3.38441994        0.90952462
 C            2.80566916        1.96372804        0.88147846
 C            2.21928664        3.17013310        0.51260878
 C            3.24260830       -0.29851605        0.18758672
 C            3.24533794        1.06540746       -0.10697184
 C            2.27575763       -2.45795831       -0.31189567
 C            2.60888812       -1.17064880       -0.70568732
 C            0.34878014       -3.67753973        0.24480940
 C            1.07592178       -3.06227196       -0.85624832
 C           -1.71035986       -3.29808331        1.43149674
 C           -2.88115903       -2.42888029        1.39705258
 C           -1.04018964       -3.61514334        0.24747753
 C           -3.50141393       -2.17890580        0.18781458
 C           -2.98810681        0.21943668        0.44485761
 C           -3.69580280       -0.79533318       -0.21169412
 C           -1.56581746        2.16157219        0.18565800
 C           -2.65033224        1.38359179       -0.24926695
 C            0.11335154        3.84216555       -0.25060770
 C           -1.06540581        3.20287906       -0.61610830
 C            2.38774239        3.68119136       -0.83101077
 C            1.09116252        4.15545633       -1.28424821
 C            3.20817478        1.42369471       -1.45232426
 C            2.91421362        2.78906698       -1.83630012
 C            2.03039152       -0.65983194       -1.86661312
 C            2.51517154        0.53777889       -2.36838547
 C            0.35778722       -2.39861377       -1.84887716
 C            0.78070013       -1.13434601       -2.27952325
 C           -1.68574214       -3.42681508       -0.97208847
 C           -3.03556091       -2.89844255       -0.98025174
 C           -0.95412946       -2.79620749       -2.06391732
 C           -3.78570788       -0.78670913       -1.66161711
 C           -3.16167233       -2.01370674       -2.12313623
 C           -1.86350208       -1.92080072       -2.77327038
 C           -3.16701009        1.55644321       -1.53250099
 C           -3.46063457        0.38050283       -2.32477861
 C           -1.44330001        3.29478430       -1.95162260
 C           -2.52694987        2.47875489       -2.44203062
 C            0.87255645        3.64838201       -2.62816108
 C            1.96817509        2.74470451       -2.93864296
 C            1.66778798        1.34661645       -3.21959213
 C           -0.41083918        3.25700700       -2.97310178
 C           -0.09063163       -0.29653815       -3.00018496
 C           -1.43050926       -0.66820769       -3.19124506
 C           -2.40214463        0.32167152       -3.31611696
 C           -1.99828273        1.68717685       -3.54810395
 C            0.34384912        0.97073624       -3.42188443
 C           -0.58782414        1.98356062       -3.64451149
