   70
C70 / DATE: 7/ 1/2024 / Origin: Program Fullerene / C70 from database
 C            1.55000742        0.02138448        4.95457492
 C            0.73508461       -1.15465930        4.70933039
 C            1.36266326       -1.92118561        3.64321996
 C            2.66792207       -0.02334157        4.03232557
 C            2.66171971       -1.32176688        3.38453564
 C            2.61144847        1.15965192        3.19031499
 C            0.74863569        1.18326331        4.61809114
 C            1.37259675        1.85493330        3.48796784
 C           -0.63550806       -0.71196615        4.52986937
 C           -0.62841252        0.74637112        4.48805967
 C           -1.43478932       -1.41467837        3.63774767
 C            0.57520374       -2.36207957        2.57714565
 C           -0.80770937       -2.36317822        2.72809826
 C            1.13150207       -2.48283658        1.29791894
 C            3.18371413       -1.39889164        2.10534756
 C            2.47785468       -2.17762319        1.10554171
 C            2.99809387        1.03696767        1.86336399
 C            3.57472868       -0.16407223        1.44867722
 C            2.39110974        1.85157066        0.90954328
 C            0.56933679        2.28980008        2.43457468
 C            1.09416313        2.32552813        1.13758042
 C           -1.43278571        1.40506953        3.56797819
 C           -0.81139414        2.31247060        2.61336877
 C           -2.46519665       -0.71482266        2.88838893
 C           -2.46540211        0.66971847        2.85563487
 C           -1.65365932       -2.46749560        1.55884829
 C           -2.67956364       -1.44984839        1.65533799
 C            0.30820773       -2.64533269        0.17490896
 C           -1.08449951       -2.68527886        0.31495577
 C            0.86435551       -2.51198130       -1.10406158
 C            2.91367696       -1.68886056       -0.19337881
 C            3.65541628       -0.45726295        0.02976351
 C            2.03104745       -1.76958052       -1.26423648
 C            2.88924352        1.81698610       -0.38632864
 C            3.49200617        0.58325758       -0.86657000
 C            2.10456445        2.37018321       -1.47289084
 C            0.26013268        2.64287300        0.05361331
 C            0.80192007        2.79635886       -1.22837725
 C           -1.67788738        2.37889299        1.45593536
 C           -2.68572691        1.34576947        1.59002906
 C           -1.12910799        2.58064984        0.20070338
 C           -3.03034848       -0.78138701        0.48725238
 C           -3.02419037        0.62039819        0.45106099
 C           -1.87819884       -2.44817711       -0.80529482
 C           -2.88753219       -1.47464313       -0.71536553
 C            0.07265752       -2.75315177       -2.21994964
 C           -1.36223551       -2.82182849       -2.04039891
 C            0.32196149       -1.98305814       -3.42518427
 C            2.12489657       -0.84992903       -2.31620512
 C            2.89637396        0.29871685       -2.15606770
 C            2.38532865        1.55863320       -2.64970464
 C            1.19649131       -0.90219722       -3.35931128
 C            1.46197161        1.53444295       -3.67967776
 C            0.93067036        0.24861638       -4.11025305
 C           -0.05586174        2.96848904       -2.31621701
 C            0.35118785        2.46377318       -3.61707699
 C           -1.91182762        2.26382021       -0.90485477
 C           -2.87577000        1.25501997       -0.78511339
 C           -1.46798081        2.67258212       -2.15392947
 C           -3.37779382       -0.86041482       -1.86342724
 C           -3.32887487        0.58532853       -1.91781628
 C           -1.98942264       -2.36818026       -3.26541780
 C           -0.94247660       -1.84330501       -4.12788238
 C           -3.03408431       -1.37604195       -3.17312571
 C           -0.40713059        0.48692691       -4.63673393
 C           -0.79768308        1.82940828       -4.23900847
 C           -1.93643971        2.00011850       -3.35392329
 C           -2.85587795        0.96892912       -3.23702023
 C           -1.35233015       -0.52901956       -4.58556747
 C           -2.66019306       -0.24882742       -4.01123787
