   70
C70 / DATE: 7/ 1/2024 / Origin: Program Fullerene / C70 from database
 C            1.57180087       -0.25308655        5.04831259
 C            0.74588410       -1.44245862        5.03814926
 C            1.24313000       -2.31637990        3.98800568
 C            2.59338293       -0.42048984        4.02934725
 C            2.30144140       -1.62543025        3.28485776
 C            2.65339460        0.81497987        3.28651253
 C            0.73916235        0.86620636        4.63879881
 C            1.47418121        1.59743770        3.63532764
 C           -0.59709997       -1.03991025        4.65831706
 C           -0.56408441        0.35444735        4.27612974
 C            0.10107182       -2.74985587        3.22007142
 C           -1.05530952       -1.98405149        3.66815912
 C            0.24279916       -2.93969813        1.84928661
 C            2.23281831       -1.53364888        1.89567128
 C            1.31734194       -2.32451734        1.18579492
 C            2.99414493        0.76689107        1.94096755
 C            2.84509447       -0.44816047        1.25151329
 C            2.77190632        1.93927188        1.23951234
 C            0.77714098        2.19352534        2.58939546
 C            1.56288514        2.67753813        1.55201017
 C           -1.09928918        0.70443844        3.03756939
 C           -0.51854699        1.74022994        2.29098344
 C           -1.93130395       -1.54436197        2.68418934
 C           -2.00307465       -0.16776245        2.41263926
 C           -0.94179257       -3.13197653        1.15097327
 C           -2.11276693       -2.42144575        1.62886350
 C           -0.94402234       -3.05326264       -0.29276116
 C            1.31987841       -2.24737051       -0.20934551
 C            0.18149972       -2.59829146       -0.94310600
 C            2.92587392       -0.45768328       -0.14846461
 C            2.32831574       -1.52104667       -0.83907617
 C            2.93041412        1.93498643       -0.19187724
 C            3.21586503        0.73863419       -0.82546444
 C            0.94552710        3.05208127        0.29936218
 C            1.89411782        2.78050197       -0.76075412
 C           -1.11941516        2.10078327        1.08211400
 C           -0.37901347        2.74270856        0.08351310
 C           -2.67042187        0.27085529        1.25992215
 C           -2.34891286        1.53614579        0.74959759
 C           -2.86395899       -1.98356396        0.48085163
 C           -2.23120711       -2.53396076       -0.70619954
 C           -3.30533764       -0.67310718        0.43565688
 C           -2.33156227       -1.80724036       -1.89181804
 C            0.04815705       -2.15413640       -2.25231098
 C           -1.17786479       -1.60123355       -2.67708369
 C            2.41268941       -1.58024791       -2.22767268
 C            1.21463392       -1.93574125       -2.97114330
 C            3.18254203        0.76381210       -2.21244066
 C            3.04881148       -0.48526801       -2.92244069
 C            1.42873019        2.46764905       -2.03723253
 C            2.29279414        1.72838422       -2.84642918
 C           -0.84699617        2.73848619       -1.22417848
 C            0.03917906        2.43435216       -2.27844291
 C           -3.01109389        2.01801000       -0.37651277
 C           -2.22071309        2.67170268       -1.40724967
 C           -3.86674201       -0.26327586       -0.76528726
 C           -3.40239273       -0.91668705       -1.98242572
 C           -3.95868305        1.15085979       -1.03719766
 C           -2.73435470        2.27003483       -2.69299643
 C           -3.42754242        0.05943693       -3.04381523
 C           -3.82238200        1.33542131       -2.47058163
 C           -1.21257592       -0.69196438       -3.75622959
 C           -0.45323522        1.91063607       -3.49326229
 C           -2.21515692        0.27098693       -3.79327772
 C           -1.81432540        1.65874853       -3.61994300
 C            1.16020530       -1.11848417       -4.15751402
 C            2.30328459       -0.22414461       -4.14032577
 C            1.79453295        1.13519791       -4.06292014
 C           -0.02030928       -0.31660204       -4.36420183
 C            0.36685496        1.08116475       -4.25039356
