   70
C70 / DATE: 7/ 1/2024 / Origin: Program Fullerene / C70 from database
 C            1.34035021       -0.10076388        3.99938067
 C            2.56903028       -0.29347391        3.25061178
 C            2.58418025       -1.68091569        2.80866897
 C            0.50064295       -1.26653108        3.77589036
 C            1.22745813       -2.18624257        2.92515896
 C           -0.79332644       -0.79987970        3.33536262
 C            0.54098651        1.08223624        3.74601727
 C           -0.79686582        0.65080197        3.37202058
 C            1.11664801        2.14162810        3.06613088
 C            3.02428789        0.71419851        2.39730064
 C            2.39270282        1.95629970        2.38658628
 C            3.87303327        0.38825339        1.34454014
 C            3.33265071       -2.02845290        1.69598330
 C            4.13707994       -1.00840865        1.04809867
 C            2.71579516       -2.83148446        0.65349985
 C            0.59993267       -2.71737196        1.79943679
 C            1.39159151       -3.25284719        0.77881070
 C           -1.40645193       -1.41966823        2.26205327
 C           -0.76049938       -2.45211229        1.56866562
 C           -2.45410523       -0.75246360        1.65091061
 C           -1.49784384        1.34466645        2.38173224
 C           -2.42710663        0.64882696        1.59304656
 C            0.27998192        2.96574500        2.21680111
 C           -1.04117441        2.60189350        1.97267141
 C            2.36222178        2.73379488        1.15450433
 C            1.09054612        3.43936067        1.10725237
 C            3.73912196        1.08895333        0.07608597
 C            2.90889169        2.20303496       -0.01120880
 C            4.02235561       -1.18783021       -0.39055561
 C            3.14563233       -2.30567218       -0.63171376
 C            3.67690523        0.08539657       -0.97493947
 C            2.19970354       -2.22862506       -1.64446846
 C            0.77627721       -3.73437627       -0.37061045
 C            1.26495304       -3.25412438       -1.65462753
 C           -1.41625929       -3.05845593        0.48837015
 C           -0.66926334       -3.77094717       -0.44484946
 C           -3.27422472       -1.48437242        0.81098193
 C           -2.70809573       -2.64278068        0.14479621
 C           -4.12702244       -0.79465117       -0.12700533
 C           -3.19807680        1.34114872        0.64819720
 C           -3.97306172        0.63643628       -0.27188763
 C           -1.70268365        3.26336884        0.94724081
 C           -2.87041091        2.65660431        0.34033398
 C            0.46881504        3.68211921       -0.11306160
 C           -0.91134985        3.87158975       -0.11377224
 C            2.31539655        2.49118694       -1.23752374
 C            1.11326172        3.30927422       -1.29373047
 C            2.64857745        0.15775184       -1.90927583
 C            1.83864906       -0.96663084       -2.15786073
 C            2.17736277        1.42790329       -2.22450579
 C            0.60351018       -0.79795789       -2.81229766
 C            0.14665532       -3.18326165       -2.56136181
 C           -1.01919426       -3.67801947       -1.85169085
 C           -0.19073921       -1.89560988       -3.11833538
 C           -3.09653945       -2.57339862       -1.26039565
 C           -3.91819438       -1.39323484       -1.43456604
 C           -2.14471951       -2.85056994       -2.22775505
 C           -1.63306977       -1.75284223       -3.04361410
 C           -3.80728898        0.91171153       -1.69253133
 C           -3.43839440       -0.34524708       -2.31507192
 C           -2.17753495       -0.47724097       -2.89763224
 C           -2.90663460        3.07297640       -1.05166498
 C           -1.65154690        3.73707606       -1.35393715
 C           -3.13003508        2.06030162       -2.06606830
 C            0.34036645        2.85800247       -2.44501471
 C            0.88417419        1.57824388       -2.85750414
 C            0.05180970        0.47347976       -2.94437037
 C           -1.33867776        0.64011023       -2.97135706
 C           -1.03248416        3.03815711       -2.46170560
 C           -1.88866362        1.91393230       -2.80867098
