   70
C70 / DATE: 7/ 1/2024 / Origin: Program Fullerene / C70 from database
 C            1.07767805        0.00694789        4.60900781
 C            2.31114103       -0.34071005        3.94305147
 C            2.26747584       -1.76764007        3.67697321
 C            0.26409156       -1.20133679        4.67772695
 C            0.88074743       -2.16877618        3.79738552
 C           -1.10221786       -0.81464949        4.42003161
 C            0.24293750        1.04138022        4.03186426
 C           -1.11168762        0.63397773        4.31101032
 C            0.52812486        1.55071969        2.76034510
 C            2.62371464        0.30616525        2.68831515
 C            1.72056462        1.19580311        2.11078516
 C            2.92756269       -1.99664341        2.40768755
 C            3.24548440       -0.69398744        1.83962128
 C            2.38609886       -2.95421517        1.56599096
 C            0.21327649       -2.59641082        2.64652271
 C            0.96283978       -3.25964318        1.68380740
 C           -1.75239137       -1.32466803        3.22690998
 C           -0.99855869       -1.99644471        2.27218720
 C           -2.11106883        0.96831793        3.33276316
 C           -2.63933642       -0.27422929        2.79163101
 C           -0.50379521        2.16634359        2.02291671
 C           -1.84010050        1.97592241        2.41959469
 C           -0.22138294        2.67502010        0.74189567
 C            1.85947187        1.47876889        0.76017298
 C            1.04263968        2.44030865        0.18922204
 C            3.17125201       -0.53027496        0.45846418
 C            2.66352370        0.66712611       -0.05097222
 C            2.67858356       -2.86064480        0.15202821
 C            3.17817865       -1.66320793       -0.35730798
 C            0.43405033       -3.39353451        0.34103439
 C            1.58121696       -3.51321815       -0.53850997
 C           -1.34141574       -1.86948118        0.91510577
 C           -0.64194619       -2.60189979       -0.04924476
 C           -3.06669928       -0.23863673        1.47224869
 C           -2.39540416       -1.02628460        0.51893789
 C           -2.84244956        2.17193199        1.48553047
 C           -3.57556632        0.98888124        1.06925997
 C           -1.25528000        3.19402838       -0.05545158
 C           -2.57230203        2.94730872        0.30143325
 C           -1.00470451        3.56168506       -1.37640881
 C            1.36782357        2.91115923       -1.07356871
 C            0.35225491        3.55785521       -1.87129405
 C            2.73153501        0.90618107       -1.42640158
 C            2.14235768        2.05374839       -1.95049496
 C            3.17538208       -1.49301701       -1.73658488
 C            2.96250258       -0.16430241       -2.28651276
 C            1.41256814       -3.25143980       -1.88561753
 C            2.41459517       -2.43218233       -2.54399731
 C           -0.81899186       -2.31936815       -1.40523459
 C            0.11698119       -2.77754806       -2.33879860
 C           -2.61559338       -0.79835742       -0.85201487
 C           -1.78795258       -1.39983618       -1.80253342
 C           -3.96721086        1.16998291       -0.30287072
 C           -3.49804716        2.48231513       -0.71722346
 C           -3.48451088        0.21508440       -1.26773547
 C           -1.86338369        3.04388621       -2.43399217
 C           -3.02287284        2.36460134       -2.08290397
 C           -3.17855283        0.96918621       -2.47078496
 C            0.34974032        2.93244665       -3.18527971
 C            1.42132462        1.95467175       -3.21012896
 C           -1.00393258        2.50289912       -3.47316957
 C            2.14263157       -0.29665270       -3.48292451
 C            1.75488118       -1.68964757       -3.60161873
 C            0.34551318       -2.01922736       -3.55849721
 C            1.20501083        0.69387079       -3.75950587
 C           -1.76848247       -0.90704611       -3.10955148
 C           -2.30473210        0.41107531       -3.38768605
 C           -1.21801687        1.21152671       -3.93907300
 C           -0.56251511       -1.03507556       -3.90066460
 C           -0.08465408        0.31911053       -4.15690367
