   70
C70 / DATE: 7/ 1/2024 / Origin: Program Fullerene / C70 from database
 C            1.55945390        0.15321295        5.05687954
 C            0.75123315       -1.05242793        5.02518877
 C            1.51785166       -2.06082361        4.32443127
 C            2.64462121       -0.01447874        4.10187061
 C            2.67482138       -1.40337443        3.72486671
 C            2.48067601        0.98213555        3.05861602
 C            0.73423579        1.24530823        4.58394401
 C            1.44936032        1.89947821        3.50675415
 C           -0.56935079       -0.70069415        4.52563884
 C           -0.58976677        0.73163617        4.28544791
 C           -1.20780214       -1.54341718        3.62537581
 C            0.86656696       -2.83506182        3.28278970
 C           -0.49499288       -2.67963621        3.05550092
 C            2.67557582       -1.73146905        2.31657820
 C            1.76182509       -2.84121643        2.14467051
 C            2.50319192        0.61467065        1.70422005
 C            2.68532926       -0.72775102        1.33837089
 C            1.97124208        1.51846877        0.77401518
 C            0.69548820        2.51456575        2.52657236
 C            1.26385159        2.61957661        1.26487358
 C           -1.22240025        1.23920322        3.15312550
 C           -0.69366813        2.40199103        2.60034799
 C           -2.02594269       -0.96576203        2.57214018
 C           -1.97786136        0.39830164        2.32469157
 C           -1.00191764       -2.88123124        1.70921583
 C           -2.01142364       -1.87583815        1.44383529
 C            1.25223696       -3.02438121        0.87389198
 C           -0.12329526       -3.19743762        0.68305340
 C            2.40404277       -1.12646897        0.02709248
 C            1.96862355       -2.43993967       -0.15955084
 C            1.82916934        1.14236980       -0.56947193
 C            2.11487035       -0.16786118       -0.95354167
 C            1.26833404        2.03369492       -1.49208262
 C            0.65778830        3.49632269        0.38330310
 C            0.74880328        3.24859837       -1.04054457
 C           -1.43810434        3.04550341        1.62572669
 C           -0.71509646        3.86544577        0.67398249
 C           -2.37320946        0.86534168        1.06888255
 C           -2.37759408        2.23809059        0.86612705
 C           -2.10105157       -1.36330238        0.15128539
 C           -2.34921235        0.00069874       -0.03743743
 C           -0.59104685       -3.08678864       -0.62339408
 C           -1.56541234       -2.11022140       -0.90035436
 C            1.66444043       -2.86875662       -1.43356968
 C            0.33053961       -3.40008902       -1.61205466
 C            1.84804163       -0.58886569       -2.26364451
 C            1.87860923       -1.95886677       -2.53120567
 C            0.94556871        1.60155494       -2.78364560
 C            1.24819036        0.29136168       -3.17798366
 C            0.04046845        2.36429109       -3.53116197
 C           -0.47373938        3.76845017       -1.63670526
 C           -1.44979509        3.83608379       -0.56841196
 C           -2.42731337        2.76387175       -0.48050762
 C           -0.89413868        3.20198947       -2.82088000
 C           -2.41185222        0.51125324       -1.34448603
 C           -2.52120774        1.89724938       -1.56049347
 C           -2.12181712        2.42293087       -2.78508413
 C           -1.75388310       -1.66335723       -2.21338568
 C           -2.21671420       -0.35631541       -2.43522556
 C           -0.02868340       -3.19824936       -2.99204085
 C            1.09089702       -2.50746232       -3.61483118
 C           -1.19956472       -2.40294953       -3.26437882
 C            0.78287340       -0.18693891       -4.41331203
 C            0.53404721       -1.60018728       -4.58254251
 C           -0.91316240       -1.76294345       -4.52941459
 C           -0.77476276        1.72777850       -4.54162153
 C           -2.09391996        1.56488098       -3.94290729
 C           -2.27770631        0.14877726       -3.73930373
 C           -0.36987398        0.43575515       -5.02508771
 C           -1.48558553       -0.46627838       -4.78304331
