   70
C70 / DATE: 7/ 1/2024 / Origin: Program Fullerene / C70 from database
 C            1.18736353       -0.09239932        4.45174717
 C            2.55372030       -0.32285244        4.02578619
 C            2.63301673       -1.67607434        3.50786857
 C            0.40324000       -1.26271523        4.08858141
 C            1.28522577       -2.22227174        3.46114265
 C           -0.75001345       -0.81042284        3.34901775
 C            0.49242072        1.08281209        3.95564879
 C           -0.74920233        0.64283325        3.34606016
 C            1.21768599        2.08614650        3.33196283
 C            3.13388033        0.56333121        3.03265555
 C            2.55535866        1.80286228        2.81381490
 C            3.39949060       -1.63599849        2.27317070
 C            3.49291383       -0.24061593        1.87602378
 C            3.09551789       -2.57232353        1.30218315
 C            0.88399146       -2.86500281        2.29205627
 C            1.90065003       -3.37371834        1.49074405
 C           -1.10650186       -1.46671858        2.18063898
 C           -0.35990995       -2.55253131        1.70866742
 C           -1.95348309       -0.81026866        1.30486845
 C           -1.24017337        1.30293715        2.21909243
 C           -2.02248661        0.58598396        1.32140076
 C            0.54994761        2.91805765        2.34474673
 C           -0.67475911        2.51335524        1.80547010
 C            2.60026562        2.35032053        1.47365093
 C            1.58701082        3.38196563        1.44343348
 C            3.06164659        0.15466113        0.60350238
 C            2.70949277        1.48402386        0.38377328
 C            3.04920037       -2.13997808       -0.08017179
 C            2.74213112       -0.81039513       -0.35316003
 C            1.57567255       -3.92557167        0.20078599
 C            2.35484146       -3.18798852       -0.78924835
 C           -0.73414039       -3.14267124        0.48702690
 C            0.20204053       -3.88404513       -0.23937703
 C           -2.51650977       -1.52053690        0.25802849
 C           -1.87335877       -2.68182872       -0.19470355
 C           -3.50694156       -0.89708906       -0.49807009
 C           -2.64776385        1.26053260        0.27957708
 C           -3.54206098        0.55772849       -0.52937730
 C           -1.08701658        3.08460636        0.59253931
 C           -2.13238146        2.49245467       -0.13675058
 C            1.19705132        3.85748649        0.21095509
 C           -0.22038462        3.98710804       -0.03520521
 C            2.12182109        1.85280792       -0.82683188
 C            1.71242074        3.17788131       -0.96275002
 C            1.88246896       -0.48107070       -1.41412684
 C            1.57761963        0.86045344       -1.65725805
 C            1.44297787       -2.82609696       -1.84981678
 C            0.28506351       -3.67813332       -1.66940673
 C            1.23194791       -1.48157992       -2.15517202
 C           -2.05006559       -3.10504417       -1.51648438
 C           -0.87017177       -3.32332074       -2.32550672
 C           -3.80785355       -1.37273327       -1.83025206
 C           -2.98449771       -2.41950079       -2.38663215
 C           -3.74652526        0.97002467       -1.91070814
 C           -3.71357690       -0.23415769       -2.72264526
 C           -2.46139596        2.97490979       -1.40678456
 C           -3.03933396        2.06690552       -2.37453964
 C           -0.31481197        4.21294192       -1.46094088
 C            0.84086413        3.55054983       -2.05547116
 C           -1.48684034        3.74300171       -2.15271846
 C            0.59844476        1.17963175       -2.60850788
 C           -1.99837104        1.82853945       -3.36519147
 C            0.33414535        2.51086503       -2.91999079
 C           -1.02568024        2.88596245       -3.23237821
 C            0.10130607       -1.15891359       -2.91455550
 C           -0.81319898       -2.17456172       -3.20426348
 C           -2.19325425       -1.83602000       -3.46527957
 C           -2.54987429       -0.44392927       -3.56382451
 C           -0.26614002        0.18173418       -3.07448521
 C           -1.55417700        0.52366407       -3.53403537
