   70
C70 / DATE: 7/ 1/2024 / Origin: Program Fullerene / C70 from database
 C            1.57411670        0.08903718        4.69284859
 C            0.80368636       -1.14100911        4.69274224
 C            1.39069682       -2.03929237        3.71323936
 C            2.65849624       -0.07212946        3.74240113
 C            2.64584299       -1.44680374        3.27837857
 C            2.55641859        0.98720957        2.75124558
 C            0.70814542        1.14193091        4.19618434
 C            1.31389975        1.69398203        3.00028961
 C           -0.59295988       -0.78408855        4.53679736
 C           -0.63511888        0.60411586        4.09783992
 C           -1.42133025       -1.69475370        3.89821088
 C            0.54509136       -2.65224212        2.78482421
 C           -0.80707476       -2.75013992        3.10247009
 C            0.96092691       -2.79284626        1.45268703
 C            3.08168979       -1.68895255        1.98919158
 C            2.29570812       -2.56496879        1.14013891
 C            2.90253678        0.69460533        1.43277699
 C            3.45417250       -0.55226142        1.16361532
 C            2.26377391        1.37644741        0.39066158
 C            0.50113749        1.98088226        1.91586306
 C            1.07902713        2.06865408        0.65458313
 C           -1.40469578        0.93100302        2.98413354
 C           -0.87818898        1.79526981        2.01282712
 C           -2.53347164       -1.18856459        3.11834721
 C           -2.50534996        0.13044678        2.67092522
 C           -1.75243004       -3.12664245        2.07119616
 C           -2.89384194       -2.23540420        2.18025969
 C            0.02392667       -2.86958674        0.41074153
 C           -1.31364961       -3.10998223        0.69258850
 C            0.36445638       -2.42529369       -0.86987326
 C            2.65951950       -2.24997728       -0.22788801
 C            3.44936786       -1.02884447       -0.19742563
 C            1.71189022       -2.37509004       -1.23865425
 C            2.60564566        1.08515431       -0.93698396
 C            3.24685963       -0.13089527       -1.22979522
 C            1.99105482        1.80758178       -1.97221210
 C            0.30320539        2.53492282       -0.39984507
 C            0.84503704        2.56481089       -1.68779168
 C           -1.67386714        2.18875922        0.93912746
 C           -1.06792165        2.74163979       -0.19225685
 C           -3.30373824        0.48106665        1.58902584
 C           -2.95802762        1.66132905        0.82157474
 C           -3.28801131       -1.85019607        0.83948258
 C           -2.32220196       -2.41605441       -0.08890802
 C           -3.70587550       -0.54752792        0.63370031
 C           -0.61644010       -1.81658985       -1.67142033
 C           -1.91476487       -1.66606453       -1.19199936
 C           -0.26686257       -1.20539014       -2.87260852
 C            2.05325774       -1.82535347       -2.47084805
 C            2.99933562       -0.72145063       -2.45759265
 C            1.00264553       -1.44351158       -3.38898084
 C            2.30149839        1.48050094       -3.29717599
 C            2.70561340        0.12647321       -3.58296017
 C            1.60452827       -0.49276643       -4.30159836
 C            1.38910846        1.82864775       -4.36642296
 C            0.78861854        0.57906184       -4.81770982
 C            0.13532730        3.18948248       -2.71396085
 C            0.30616965        2.73720440       -4.07850187
 C           -1.88672692        3.07692598       -1.26629278
 C           -1.28895083        3.38037943       -2.55201756
 C           -3.51916235        1.46102494       -0.50158928
 C           -3.55446662        0.02489223       -0.68896458
 C           -2.66131600       -0.55470821       -1.59259756
 C           -3.02777692        2.22520965       -1.53956619
 C           -1.06289252       -0.16222657       -3.37143087
 C           -0.60383943        0.63430219       -4.42884887
 C           -0.92217343        2.04591609       -4.43463743
 C           -1.94035974        2.51536133       -3.52869627
 C           -2.21703965        0.22014628       -2.67031350
 C           -2.68190584        1.53723129       -2.76255066
