   70
C70 / DATE: 7/ 1/2024 / Origin: Program Fullerene / C70 from database
 C            1.26219162        0.14183778        5.07703788
 C            2.47115964        0.12875437        4.27349309
 C            2.50972703       -1.13898268        3.56724100
 C            0.45540077       -1.00195328        4.67954481
 C            1.21701872       -1.77509874        3.71172216
 C           -0.85537579       -0.51226711        4.29149095
 C            0.41179157        1.31536545        5.04999316
 C           -0.91748200        0.89410488        4.63236114
 C            0.79634845        2.44540937        4.22354994
 C            2.70444500        1.18412522        3.29623419
 C            1.89270525        2.30965669        3.27424530
 C            2.98752181       -0.88208827        2.22581826
 C            3.07924990        0.55355243        2.04116422
 C            2.45939048       -1.61588993        1.17832522
 C            0.57443534       -2.22125631        2.56034982
 C            1.32043099       -2.40220224        1.39149994
 C           -1.37948775       -0.93111099        3.07427641
 C           -0.80069500       -2.03178467        2.45054300
 C           -2.14633727       -0.04718831        2.30785169
 C           -1.38624024        1.82597641        3.62570128
 C           -0.37959436        2.85807341        3.47867137
 C           -1.97315418        1.33252271        2.46650323
 C            1.43902364        2.82953741        1.99720560
 C            0.04198360        3.20126242        2.13307336
 C            2.64940974        1.08653899        0.82234200
 C            1.84157522        2.22818134        0.80620106
 C            2.68799435       -1.13522724       -0.09998348
 C            2.65054916        0.24824493       -0.30336082
 C            2.40434837       -1.99008025       -1.14677569
 C            0.70376156       -3.00116239        0.28580652
 C            1.35996583       -2.97691992       -0.94365689
 C           -1.45976374       -2.59317334        1.37079438
 C           -0.67430233       -3.19832616        0.30936417
 C           -2.75128248       -0.52090960        1.13746246
 C           -2.53680330       -1.84155226        0.75107498
 C           -3.21596174        0.39417795        0.19526700
 C           -1.94632200        2.13508733        1.32971407
 C           -0.80672512        2.89944238        1.07480648
 C           -2.75051544        1.76791111        0.26162332
 C            1.09045520        2.48543832       -0.33520536
 C           -0.25393410        2.84884175       -0.20097282
 C            2.21766492        0.75633524       -1.53613770
 C            1.52904285        1.97305006       -1.54651107
 C            2.26594373       -1.45795645       -2.48283334
 C            2.19112072       -0.08201055       -2.66109528
 C            0.59731729       -3.06758622       -2.18174730
 C            1.33963723       -2.32438533       -3.19210835
 C           -1.44526319       -3.08704661       -0.91906878
 C           -2.57341016       -2.20519615       -0.65756525
 C           -0.79548617       -3.00272605       -2.14482771
 C           -3.29767443        0.01973479       -1.21037446
 C           -2.93461959       -1.26184818       -1.61557607
 C           -2.37213711        2.17296169       -1.08221312
 C           -1.11050707        2.71783509       -1.29414618
 C           -2.87889388        1.16789847       -2.00233660
 C            0.85726514        2.38399557       -2.68762529
 C           -0.56192814        2.65545861       -2.57047736
 C            1.73832180        0.40106705       -3.88681734
 C            1.07803218        1.68539131       -3.93378060
 C            0.67859289       -1.83057126       -4.30704597
 C            1.00456279       -0.49231148       -4.77150573
 C           -1.48693361       -2.43662369       -3.21198667
 C           -2.53043014       -1.46144849       -2.93334157
 C           -0.76086694       -1.98822004       -4.38848680
 C           -2.22373897        0.96050452       -3.21131195
 C           -1.23133073        1.86666662       -3.59238801
 C           -0.21768731        1.49630654       -4.56708801
 C           -0.23685222        0.16911373       -5.14395850
 C           -2.28655618       -0.30926868       -3.78633509
 C           -1.33009206       -0.71598909       -4.80370833
