   70
C70 / DATE: 7/ 1/2024 / Origin: Program Fullerene / C70 from database
 C            1.23021794       -0.08930516        4.37910625
 C            2.46710502       -0.34192527        3.67746716
 C            2.37960157       -1.66698297        3.08380380
 C            0.38586218       -1.26542092        4.22378834
 C            1.01513234       -2.12716554        3.24899748
 C           -0.95851647       -0.79632475        3.96499102
 C            0.43254450        1.05708966        3.98966056
 C           -0.94574767        0.64601777        4.15909086
 C            0.78309132        1.79519337        2.85657400
 C            2.86359137        0.56973848        2.62644457
 C            2.06913384        1.67141770        2.30881112
 C            2.92079996       -1.58494777        1.73495283
 C            3.40587660       -0.23280913        1.54361759
 C            2.22663386       -2.18906804        0.69249137
 C            0.31116971       -2.49534329        2.11088372
 C            1.03672122       -2.85869886        0.97955634
 C           -1.67878845       -1.32595081        2.89530544
 C           -1.04636164       -2.17300871        1.97436194
 C           -2.85408098       -0.67835799        2.52360773
 C           -1.93640102        1.39893689        3.55449036
 C           -3.05643674        0.69283155        2.95964950
 C           -0.21699331        2.50042734        2.16982122
 C           -1.53940740        2.43855901        2.61849158
 C            0.06489277        3.13010412        0.95377975
 C            2.38274298        2.35485546        1.14137706
 C            1.36267889        3.12859422        0.46311654
 C            3.39640535        0.30011318        0.26208685
 C            3.16383694        1.66767570        0.12413433
 C            2.46549828       -1.75488771       -0.61401252
 C            3.14287197       -0.54160349       -0.82235816
 C            1.84815479       -2.42881460       -1.67694654
 C            0.36823899       -3.50688498       -0.04415177
 C            0.86955048       -3.37926456       -1.39910869
 C           -1.69379267       -2.49205047        0.77664714
 C           -1.07702286       -3.38769931       -0.09305170
 C           -3.32503221       -0.77897145        1.15338377
 C           -2.66834332       -1.62677443        0.27633520
 C           -3.51274776        1.46430898        1.81830390
 C           -2.62683957        2.60322194        1.66810956
 C           -3.67395576        0.55455187        0.69734748
 C           -0.97096559        3.43389530        0.07273687
 C           -2.33170084        3.03772297        0.38717737
 C           -0.77220270        3.22677255       -1.35516298
 C            1.57844669        2.99687608       -0.97181238
 C            2.78217159        2.20792735       -1.17012140
 C            0.48006338        2.82147779       -1.81252997
 C            3.23028836        0.00106941       -2.10013530
 C            2.87950483        1.39726864       -2.28839143
 C            1.94096662       -1.93459951       -2.97591452
 C            2.70413080       -0.73403575       -3.22876046
 C            0.74632855       -1.87694469       -3.80592503
 C           -0.26737697       -3.50332513       -2.29428704
 C           -1.47345612       -3.40158866       -1.48966167
 C           -0.38689865       -2.57282573       -3.40257856
 C           -2.69730294       -1.33174085       -1.08777217
 C           -2.24937908       -2.28761469       -1.99376229
 C           -1.65072470       -1.86554274       -3.24844043
 C           -3.25600766        0.95877209       -0.56679476
 C           -2.82501600        2.27481000       -0.74924102
 C           -1.97622863        2.60499953       -1.88179429
 C           -2.90621886       -0.01348235       -1.50626469
 C           -1.74849419       -0.53303680       -3.62325881
 C           -1.86617230        1.69916266       -2.92126183
 C           -2.47634082        0.39106207       -2.76927018
 C            0.58165287        1.98457386       -2.93043530
 C            1.81653856        1.43693600       -3.27455449
 C            1.86334852        0.17501739       -3.99431825
 C            0.62084492       -0.51332336       -4.29555286
 C           -0.57266373        1.50075591       -3.54829108
 C           -0.57902091        0.16758365       -4.13457803
