   70
C70 / DATE: 7/ 1/2024 / Origin: Program Fullerene / C70 from database
 C            1.18289790        0.19398592        4.80019938
 C            2.42375937        0.01371753        4.08058037
 C            2.47276134       -1.37879641        3.69009395
 C            0.34029638       -0.96572044        4.51391687
 C            1.10475543       -1.86371937        3.68668651
 C           -0.92320210       -0.47691132        4.01379811
 C            0.39976664        1.37094736        4.50439029
 C           -0.96965072        0.92262601        4.36264826
 C            0.71068214        2.13716582        3.30615904
 C            2.65212769        0.79335140        2.87434450
 C            1.65699865        1.65344638        2.40914656
 C            3.20894080       -1.44727263        2.44593884
 C            3.32417535       -0.08494295        1.93833905
 C            2.83758359       -2.43351820        1.54725077
 C            0.57503753       -2.31610455        2.48126796
 C            1.46771826       -2.92814279        1.60959973
 C           -1.36092591       -0.84818214        2.73985552
 C           -0.60505691       -1.74467590        1.96553830
 C           -2.33420252       -0.05630485        2.11737927
 C           -1.59247350        1.80340650        3.41529990
 C           -0.55430034        2.61543096        2.79843817
 C           -2.52752292        1.27032954        2.55327314
 C           -0.69598924        2.89000791        1.43991686
 C            1.42036036        1.75443447        1.03234606
 C            0.26875509        2.39598266        0.54787697
 C            3.15658245        0.12350335        0.57580063
 C            2.30156989        1.14177382        0.13445723
 C            3.14257755       -2.22350139        0.14696809
 C            3.44105003       -0.93677260       -0.28217554
 C            1.05081316       -3.23540540        0.26314558
 C            2.18521248       -2.99898837       -0.61786458
 C           -0.98359727       -1.99915796        0.63338194
 C           -0.21148217       -2.86029029       -0.16183134
 C           -2.84111075       -0.45215837        0.87322036
 C           -2.10534419       -1.35164550        0.08406517
 C           -3.85843404        0.31350190        0.29818547
 C           -3.00966490        2.18316146        1.63890319
 C           -2.00993154        3.01974765        0.99326635
 C           -3.92277845        1.71579053        0.63428887
 C           -2.29292295        3.00485174       -0.42400040
 C           -3.63293335        2.46195284       -0.57351898
 C           -0.00233693        2.36365211       -0.82770106
 C           -1.30036089        2.60036991       -1.30719185
 C            2.15431612        1.34800593       -1.23888644
 C            0.99838822        1.97734637       -1.72167265
 C            3.42328953       -0.69610680       -1.64406540
 C            2.96391350        0.59877132       -2.09546392
 C            1.94770289       -2.63344544       -1.94002151
 C            2.79262320       -1.68032262       -2.51004521
 C           -0.45551963       -2.94730212       -1.52254566
 C            0.66041756       -2.81258601       -2.44947660
 C           -2.45165526       -1.56134225       -1.26477374
 C           -1.59554650       -2.27251084       -2.08840626
 C           -4.10157629        0.23605850       -1.12341174
 C           -3.89198739        1.56841317       -1.67858826
 C           -3.31289771       -0.68347730       -1.90479480
 C           -1.67627024        2.12924956       -2.57021445
 C           -2.87921723        1.44300036       -2.70416045
 C           -2.82169605        0.04132101       -3.06577763
 C            0.69745137        1.96451139       -3.08396701
 C           -0.68451502        1.81778189       -3.48363309
 C            2.61453152        0.43861466       -3.49147561
 C            2.39876844       -0.98395629       -3.72159671
 C            1.46877075        1.14805723       -3.99970369
 C            0.19761456       -2.04581851       -3.59915801
 C           -1.19328133       -1.68301205       -3.35953007
 C           -1.67183793       -0.41623965       -3.70349980
 C           -0.78388278        0.54633245       -4.18601758
 C            1.05161695       -1.14981509       -4.22749184
 C            0.56027827        0.16754480       -4.57730538
