   70
C70 / DATE: 7/ 1/2024 / Origin: Program Fullerene / C70 from database
 C            1.55584624        0.11676774        4.83654363
 C            0.78388764       -1.10172541        4.69137818
 C            1.64649848       -2.07380449        4.05957431
 C            2.72140714        0.00071787        3.97219760
 C            2.79777352       -1.36619585        3.51589019
 C            2.63242283        1.04934629        2.97985242
 C            0.74589061        1.21109150        4.33440312
 C            1.53060231        1.91591116        3.35034785
 C           -0.47272589       -0.76730174        4.03685838
 C           -0.52850172        0.68062464        3.90568896
 C           -0.92822885       -1.55964188        2.97825869
 C            1.09241960       -2.85948910        2.98348929
 C           -0.26468756       -2.76227634        2.69074971
 C            2.83167661       -1.62424819        2.08446295
 C            2.02020549       -2.79857212        1.86749615
 C            2.79361688        0.75547339        1.62398475
 C            2.72252241       -0.57293282        1.18037459
 C            2.46024504        1.76387474        0.72507708
 C            0.86880337        2.53943316        2.30749184
 C            1.62006725        2.78783957        1.17518667
 C           -1.10284790        1.21413803        2.75993299
 C           -0.50154328        2.31288199        2.12723106
 C           -1.75600596       -0.97301323        2.00753845
 C           -1.96480485        0.40954244        2.02872474
 C           -2.22433068       -1.73816084        0.93306045
 C           -0.68093597       -3.50070813        1.59438228
 C           -1.84806213       -3.07135462        0.85607495
 C            1.48884003       -3.03922654        0.60788315
 C            0.33155054       -3.80700872        0.59941005
 C            2.26138595       -0.84458802       -0.11410238
 C            1.66252094       -2.08161425       -0.40760282
 C            2.51693925        1.48811307       -0.63718224
 C            2.25424763        0.18084724       -1.06385977
 C            2.39586829        2.55691532       -1.51758161
 C            1.07769182        3.66548432        0.25745706
 C            1.65163243        3.71493454       -1.06957044
 C           -1.12022914        2.86323879        0.99097759
 C           -0.36868849        3.67101207        0.12892645
 C           -2.73354007        1.00855982        1.04554204
 C           -2.29877920        2.28867736        0.51205432
 C           -2.81373044       -1.11225683       -0.17456250
 C           -3.23355608        0.20788283       -0.05406034
 C           -2.80318983       -1.72403086       -1.43862724
 C           -1.74854246       -3.69989199       -0.44277041
 C           -0.34610047       -4.03754851       -0.64756532
 C           -2.17271036       -2.95398103       -1.60561243
 C            1.02038758       -2.26229607       -1.64381636
 C            0.10028480       -3.30114458       -1.80570597
 C           -1.09774916       -3.05875826       -2.58004496
 C            1.75059872       -0.06599311       -2.34718737
 C            1.04072656       -1.24110700       -2.59657229
 C            2.01938308        2.31346673       -2.88948446
 C            1.69229408        0.96134149       -3.28799706
 C            0.56557187        3.92948144       -2.00596889
 C           -0.67434481        3.68197222       -1.29544144
 C            0.85784253        3.14698000       -3.18232909
 C           -2.56580177        2.28163900       -0.91926006
 C           -3.28626034        1.06066886       -1.22790701
 C           -1.59904975        2.76820375       -1.79554466
 C           -2.99913721       -0.95092792       -2.58297366
 C           -3.14006264        0.49112289       -2.47736340
 C           -1.03907715       -2.11698893       -3.58887776
 C            0.15527149       -1.29547671       -3.68111443
 C           -2.17505354       -1.22661919       -3.74743842
 C            0.52070248        1.06745750       -4.13503272
 C           -0.16798266        2.26886569       -3.69984142
 C           -1.39261692        2.14281976       -3.03705577
 C           -2.23292973        1.10342034       -3.43487212
 C           -0.23044389       -0.07016456       -4.36009888
 C           -1.67537462        0.03830031       -4.25347626
