   70
C70 / DATE: 7/ 1/2024 / Origin: Program Fullerene / C70 from database
 C            1.29037347        0.12550274        4.40828673
 C            2.51849993       -0.21586647        3.72753994
 C            2.48448189       -1.64085698        3.45126212
 C            0.45051125       -1.06224194        4.45072381
 C            1.14015067       -2.11713142        3.73051891
 C           -0.88872425       -0.68385183        4.03244863
 C            0.49305910        1.20457795        3.87146837
 C           -0.87613678        0.73813491        3.73953934
 C            1.00199707        2.00911305        2.85742203
 C            2.83608207        0.46765266        2.48566904
 C            2.03442674        1.51860825        2.04337757
 C            3.02973680       -1.84648529        2.12459238
 C            3.25577021       -0.53778304        1.52682917
 C            2.48142277       -2.84735139        1.33970470
 C            0.45781724       -2.83279809        2.74799609
 C            1.17860219       -3.39544028        1.69656577
 C           -1.59350233       -1.53289240        3.19708800
 C           -0.92584333       -2.69994836        2.63771285
 C           -2.42418374       -0.96016940        2.15186181
 C           -1.63611081        1.25098928        2.68817534
 C           -2.25844910        0.37128844        1.79308211
 C            0.10551655        2.91472306        2.30846079
 C           -1.29572731        2.52308098        2.24805066
 C            0.42435390        3.56052283        1.05368331
 C            2.05536704        1.84747875        0.68392431
 C            1.41987657        3.01304682        0.25524436
 C            2.96219667       -0.34396372        0.17922199
 C            2.52331408        0.91264600       -0.25203398
 C            2.50494254       -2.69182601       -0.10038926
 C            2.81031632       -1.45469316       -0.65533601
 C            0.50098755       -3.76943472        0.46281346
 C            1.39179671       -3.44981397       -0.64413838
 C           -1.59043346       -3.01530924        1.38367594
 C           -2.55867396       -1.95908717        1.11562123
 C           -0.86868530       -3.55812391        0.32272013
 C           -2.76481369       -1.56581261       -0.19840974
 C           -2.51036267        0.76614180        0.47032808
 C           -2.76193715       -0.19888694       -0.52589588
 C           -1.83102980        3.01212998        0.99705102
 C           -0.84476931        3.93138985        0.45244111
 C           -2.47761246        2.12646359        0.14440307
 C           -0.88119520        4.22443978       -0.90173563
 C            1.46444931        3.36450035       -1.08790006
 C            0.34902574        4.10164989       -1.66529352
 C            2.40181465        1.16258121       -1.62237639
 C            1.89061241        2.37881528       -2.05972609
 C            2.51515737       -1.26038026       -1.99665816
 C            2.34449910        0.08740536       -2.50141136
 C            0.84805333       -3.07033956       -1.86709367
 C            1.51541440       -2.10845281       -2.63022985
 C           -1.40007761       -3.44648200       -0.95900584
 C           -2.49074578       -2.51237972       -1.17975031
 C           -0.50013409       -3.32761251       -2.09582026
 C           -2.45191413       -2.11431459       -2.56678787
 C           -1.20981117       -2.60933210       -3.13961834
 C           -2.88891852        0.19085665       -1.87028979
 C           -2.55159160       -0.70962511       -2.87458972
 C           -2.70714957        2.52980465       -1.16355422
 C           -1.95339508        3.65570814       -1.69938324
 C           -2.79307750        1.53351035       -2.20547830
 C            0.02586022        3.49778655       -2.94772838
 C            0.91967200        2.37498004       -3.14452060
 C           -1.39524236        3.25301339       -2.98041051
 C           -1.84921055        1.90596924       -3.24785239
 C            1.29718733        0.06202669       -3.51102088
 C            0.79585064       -1.29629100       -3.60380161
 C           -0.55507237       -1.50172265       -3.80971545
 C           -1.45598424       -0.36483319       -3.76591298
 C            0.42934708        1.14917284       -3.59799497
 C           -0.95802769        0.93582248       -3.70764052
