   70
C70 / DATE: 7/ 1/2024 / Origin: Program Fullerene / C70 from database
 C            1.60412207       -0.09674370        4.59117692
 C            0.78384043       -1.26397501        4.33515863
 C            1.31258031       -1.94180309        3.16471134
 C            2.64389647       -0.05813549        3.57876481
 C            2.45424619       -1.17734447        2.68735287
 C            2.63309859        1.26071180        2.99774597
 C            0.76373726        1.07447974        4.40197804
 C            1.40912928        1.92204865        3.42872291
 C           -0.59636220       -0.82646999        4.30145324
 C           -0.57866538        0.61720252        4.12419700
 C           -1.48248058       -1.56014476        3.53115972
 C            0.41370308       -2.45667857        2.23278349
 C           -0.94514458       -2.50003861        2.55458692
 C            0.78921068       -2.51504550        0.89090225
 C            2.58084400       -0.96384157        1.32060536
 C            1.93298237       -1.83535153        0.45888302
 C            2.99211204        1.41013844        1.66543995
 C            3.01149225        0.27540626        0.82924014
 C            2.66050285        2.63547699        1.11001265
 C            0.64049261        2.56091195        2.45850807
 C            1.35231891        3.17947822        1.43048293
 C           -1.28266224        1.16795972        3.05433908
 C           -0.66631567        2.10472075        2.20360603
 C           -2.56411428       -0.85735470        2.86896712
 C           -2.43791050        0.51111696        2.62721248
 C           -1.92996478       -2.62472830        1.48680969
 C           -3.03037370       -1.73164813        1.80611916
 C           -0.13431152       -2.96395975       -0.05076925
 C           -1.48891938       -2.73225186        0.17200847
 C            0.30225994       -3.21548498       -1.34164679
 C            2.23426879       -1.79198115       -0.89619019
 C            1.60808801       -2.71882708       -1.72799689
 C            3.13230680        0.43409864       -0.56283648
 C            2.83303668       -0.63672640       -1.41961241
 C            2.90910678        2.85955145       -0.28991256
 C            3.23043691        1.71639670       -1.11050448
 C            0.69541323        3.45851314        0.16887384
 C            1.71553446        3.47072909       -0.85602191
 C           -1.28793782        2.44429709        0.99475821
 C           -0.51602058        2.84372073       -0.08822124
 C           -3.21549908        1.09090630        1.63338762
 C           -2.60602950        2.08259760        0.76999706
 C           -3.77747386       -1.18725995        0.77556773
 C           -4.05315272        0.23745527        0.80779757
 C           -2.29195909       -2.26626118       -0.87622343
 C           -3.45068845       -1.53889753       -0.59656808
 C           -0.60435586       -2.94919126       -2.44155968
 C           -1.78460584       -2.25959322       -2.17847861
 C            1.59249950       -2.53013611       -3.16235887
 C            0.20403874       -2.58145807       -3.59442949
 C            2.82307275       -0.39723277       -2.79822008
 C            2.18638059       -1.33356688       -3.70563703
 C            2.61394111        1.98137769       -2.39502095
 C            1.44882236        2.79895226       -2.11041087
 C            2.46584049        0.92535034       -3.27041445
 C           -0.81804404        2.36901572       -1.37231598
 C            0.18564157        2.26248793       -2.34909270
 C           -3.03351332        1.82237385       -0.59460545
 C           -3.99501466        0.73474602       -0.55443850
 C           -3.78998154       -0.39993504       -1.43321911
 C           -2.09231695        1.85024361       -1.62362084
 C           -2.21036008       -1.27401771       -3.07049582
 C           -3.05919894       -0.19981482       -2.59150329
 C           -2.29416622        1.03289819       -2.73477277
 C           -0.09169993       -1.34692616       -4.29778662
 C            1.14827239       -0.60262173       -4.41995112
 C            1.19367422        0.77167760       -3.95106259
 C            0.04983479        1.34035925       -3.38970789
 C           -1.25594012       -0.66260051       -3.97903519
 C           -1.18559610        0.75064711       -3.62866868
