   70
C70 / DATE: 7/ 1/2024 / Origin: Program Fullerene / C70 from database
 C            1.57736277        0.23302510        5.01900454
 C            0.78973370       -0.96639546        4.81560538
 C            1.66989597       -1.93823606        4.20947791
 C            2.73814525        0.14335256        4.14457849
 C            2.83793544       -1.22521713        3.70489479
 C            2.60923785        1.18493424        3.14410365
 C            0.78440888        1.35434540        4.56147586
 C            1.61350792        2.11463378        3.64902143
 C           -0.42538271       -0.59778348        4.10179299
 C           -0.48398840        0.85025306        4.05517264
 C           -0.79960127       -1.32530692        2.97458914
 C            1.15213827       -2.71821241        3.10910293
 C           -0.17096212       -2.55125978        2.71488262
 C            2.91875947       -1.49508868        2.28222442
 C            2.16063533       -2.70840589        2.06783648
 C            2.60553381        0.86449612        1.77875094
 C            2.78012517       -0.46250098        1.35372417
 C            2.13027114        1.82270111        0.87553103
 C            0.95676295        2.90146662        2.72696933
 C            1.47518487        2.94252651        1.37616949
 C           -1.01936356        1.47478716        2.93257141
 C           -0.47428042        2.70154733        2.57367676
 C           -1.52951783       -0.68823267        1.96012221
 C           -1.64984377        0.70886925        1.94223341
 C           -2.03069603       -1.44446694        0.89958978
 C           -0.54884728       -3.26145127        1.58694073
 C           -1.65271113       -2.77930912        0.78867860
 C            1.73580095       -2.99599588        0.78033556
 C            0.50345966       -3.63191742        0.65471137
 C            2.44751032       -0.81369328        0.04380743
 C            2.14132856       -2.14915178       -0.24959175
 C            1.94390937        1.49162422       -0.46822606
 C            2.18432809        0.18422977       -0.89666290
 C            1.29943245        2.39956938       -1.32061739
 C            0.41992606        3.53585329        0.58638945
 C           -0.82192064        3.26489098        1.29446418
 C            0.41918279        3.34529276       -0.78707248
 C           -2.16523049        1.34789495        0.80098165
 C           -1.85352409        2.69953886        0.56682576
 C           -2.62362934       -0.81298153       -0.19432792
 C           -2.75087594        0.57665330       -0.21563004
 C           -2.88006451       -1.55046846       -1.35377502
 C           -1.49601266       -3.37110073       -0.52869673
 C           -0.09917408       -3.75932146       -0.66021077
 C           -2.14297679       -2.77450074       -1.59727443
 C            1.79855646       -2.49842681       -1.54970178
 C            0.62760813       -3.33625925       -1.76501252
 C            2.01734649       -0.15499792       -2.24169726
 C            1.81714484       -1.48828201       -2.58800368
 C            1.25744975        2.13387588       -2.68567600
 C            1.68360482        0.83228993       -3.16354051
 C            0.09036219        2.53473430       -3.46060009
 C           -0.79558734        3.56487127       -1.43164963
 C           -2.00877676        3.21755363       -0.71038355
 C           -0.96319789        3.16397730       -2.81394741
 C           -3.25869739        1.19475975       -1.36130923
 C           -2.90744402        2.56811562       -1.62833637
 C           -2.31044890        2.63051145       -2.95372064
 C           -3.00577428       -0.87283731       -2.63011948
 C           -3.21900950        0.49439789       -2.63416234
 C           -2.50487760        1.33603444       -3.58411512
 C           -1.44663833       -2.61263931       -2.86577759
 C           -0.07432010       -2.82960113       -2.93169159
 C            0.78376568       -1.83522430       -3.55334233
 C           -2.02668468       -1.45873151       -3.53567879
 C            0.84781312        0.48066381       -4.30083329
 C           -0.19850964        1.47968559       -4.41613340
 C           -1.48139061        0.79640852       -4.35696969
 C            0.22300068       -0.82868736       -4.32654218
 C           -1.22120908       -0.63368015       -4.31520650
