   70
C70 / DATE: 7/ 1/2024 / Origin: Program Fullerene / C70 from database
 C            1.13090088       -0.10847825        4.61227681
 C            2.39429177       -0.46492069        4.00851627
 C            2.28180560       -1.83328818        3.52357831
 C            0.26730891       -1.27658445        4.53902695
 C            0.88468338       -2.20322370        3.61297244
 C           -1.07068464       -0.80822630        4.25852625
 C            0.38675094        1.00408297        4.05823196
 C           -1.01078502        0.64043541        4.13464526
 C            0.83343596        1.63615054        2.90021558
 C            2.88691990        0.33330228        2.90519572
 C            2.10869225        1.36448070        2.37655058
 C            2.92804533       -1.88873029        2.22167955
 C            3.53317633       -0.58798241        1.99229178
 C            2.27397678       -2.51764304        1.16342724
 C            0.22725924       -2.55856899        2.43858806
 C            0.98765617       -3.03526703        1.37363795
 C           -1.74982502       -1.30723004        3.07937092
 C           -1.10048710       -2.16989783        2.20459290
 C           -1.87519114        1.01742275        3.03201831
 C           -2.48208440       -0.19598108        2.51718440
 C           -0.08794536        2.35415353        2.13406557
 C           -1.43062427        1.95838689        2.10601195
 C            0.39246916        3.18643591        1.13514127
 C            2.46503178        1.88783479        1.12992786
 C            1.70287172        2.91106442        0.57761726
 C            3.74236533       -0.17702686        0.68649822
 C            3.29214913        1.14595307        0.28518737
 C            2.71715729       -2.26029478       -0.13925106
 C            3.42237960       -1.08816211       -0.39987534
 C            2.11391697       -2.90955797       -1.21008522
 C            0.31936181       -3.65801632        0.32958795
 C            0.98396507       -3.77514218       -0.94922108
 C           -1.63632733       -2.33100639        0.92499104
 C           -1.06038058       -3.27665882        0.08607066
 C           -2.80006619       -0.21890366        1.16807304
 C           -2.44908407       -1.32473819        0.38366451
 C           -2.14641351        2.06910749        0.91036580
 C           -2.97502391        1.00300395        0.53766863
 C           -0.48371025        3.57207622        0.04256349
 C           -1.76287020        3.02903822       -0.03222583
 C            1.58619568        2.99837458       -0.86912482
 C            0.32789555        3.65497779       -1.16314681
 C            2.99616167        1.09760447       -1.13952094
 C            3.05555003       -0.28862496       -1.55887622
 C            2.00177801        1.92125731       -1.64670582
 C            1.81994830       -2.14725028       -2.41564528
 C            2.09799128       -0.77864407       -2.43809091
 C           -0.00440070       -3.55297584       -1.98827108
 C           -1.25375501       -3.17662174       -1.34766852
 C            0.57144895       -2.65008553       -2.96773065
 C           -2.68819672       -1.27454536       -1.00019995
 C           -1.97156094       -2.10628169       -1.86681049
 C           -3.57942224        0.99062125       -0.70550431
 C           -3.40484538       -0.19382571       -1.52536436
 C           -2.46477833        3.14567168       -1.23023435
 C           -3.47149946        2.15665512       -1.55287343
 C           -0.27379434        3.42502160       -2.38975982
 C           -1.72355653        3.42623172       -2.44853759
 C            1.18277453        1.46068527       -2.68159039
 C            1.20195254        0.10591416       -3.04796718
 C            0.19983579        2.31042233       -3.19667028
 C           -0.27521778       -1.76577795       -3.61280871
 C           -1.64829767       -1.65733716       -3.14851995
 C            0.18160087       -0.41078451       -3.84470437
 C           -3.14679813        0.25056749       -2.88570887
 C           -3.24026259        1.69976476       -2.91292163
 C           -2.13209749        2.46231190       -3.45516437
 C           -0.94450223        1.75469830       -3.90034694
 C           -2.15106673       -0.37968713       -3.61628007
 C           -1.00414926        0.38426262       -4.10255526
