   70
C70 / DATE: 7/ 1/2024 / Origin: Program Fullerene / C70 from database
 C            1.63110735        0.18328766        4.78356458
 C            0.79427094       -0.99734510        4.66628632
 C            1.39185651       -1.86966909        3.67504306
 C            2.63148086        0.12606259        3.73033596
 C            2.51807646       -1.15787394        3.08373015
 C            2.49027221        1.30927418        2.91280794
 C            0.79609414        1.33995499        4.52459220
 C            1.47054110        2.14638274        3.52946336
 C           -0.57189087       -0.56297821        4.46236628
 C           -0.54760534        0.87323960        4.22731897
 C           -1.39491146       -1.34971403        3.67694672
 C            0.56334588       -2.61652164        2.83588563
 C           -0.82378807       -2.46994425        2.93387917
 C            1.11116717       -3.09383247        1.64800228
 C            2.69363381       -1.24372455        1.70962660
 C            2.29272434       -2.43148153        1.12369233
 C            2.50891154        1.18143027        1.52190172
 C            2.71179106       -0.07492570        0.92723950
 C            2.00469919        2.23097460        0.75344641
 C            0.68523703        2.92114765        2.69685237
 C            1.15544832        3.16155930        1.35189201
 C           -1.21319974        1.41307710        3.12202392
 C           -0.73344686        2.60114688        2.57543471
 C           -2.33284583       -0.69535438        2.79002841
 C           -2.07995846        0.61042389        2.37200562
 C           -1.66184975       -2.67250780        1.75655404
 C           -2.73201650       -1.68954394        1.81525281
 C            0.24836579       -3.39913915        0.51643455
 C           -1.07116477       -2.97816230        0.53077517
 C            2.25804076       -2.53217740       -0.31138379
 C            1.03537660       -3.22314873       -0.68635653
 C            2.69707590       -0.17901540       -0.47420144
 C            2.65510697       -1.44914187       -1.07581020
 C            2.02235251        2.14121257       -0.63604247
 C            2.48532418        0.97504283       -1.24592177
 C            1.25974904        3.04979825       -1.37395793
 C            0.00169667        3.62754293        0.61457450
 C           -1.14835266        2.99643177        1.23945337
 C            0.08137700        3.63334760       -0.76257007
 C           -2.51024056        1.01787535        1.10113871
 C           -1.94116069        2.13537696        0.48639796
 C           -3.30125350       -1.25915076        0.63385825
 C           -3.31715580        0.16638624        0.35185676
 C           -1.67570770       -2.55763686       -0.65852869
 C           -2.91190510       -1.91692422       -0.59520824
 C            0.41421306       -2.84862586       -1.87166278
 C           -0.95357496       -2.54832664       -1.86296655
 C            2.41421730       -1.55921735       -2.43809388
 C            1.23245953       -2.29705246       -2.85780717
 C            2.49811641        0.90277677       -2.63917537
 C            2.53869033       -0.39269658       -3.27542374
 C            0.90633323        2.75032400       -2.75011945
 C            1.58224450        1.73294938       -3.40400428
 C           -1.04766348        3.13493681       -1.52006181
 C           -1.93981110        2.25195950       -0.91109365
 C           -0.54530098        2.83995944       -2.84920539
 C           -3.36215325        0.31234355       -1.09217462
 C           -3.30815011       -1.02793298       -1.66498810
 C           -2.65533720        1.34555568       -1.70055997
 C           -1.55355334       -2.04266098       -3.02066579
 C           -2.73593216       -1.20145413       -2.91212285
 C            0.65248283       -1.60768822       -3.99439008
 C            1.48063310       -0.44301550       -4.27274238
 C            0.86738620        0.87278981       -4.33485006
 C           -0.72670639       -1.50254207       -4.08885867
 C           -1.24151240        1.93687188       -3.63567225
 C           -2.39880292        1.26304127       -3.07098557
 C           -2.51698891       -0.02529783       -3.73077750
 C           -0.51520882        0.97330283       -4.44938813
 C           -1.31275016       -0.24136294       -4.51289112
