   70
C70 / DATE: 7/ 1/2024 / Origin: Program Fullerene / C70 from database
 C            1.25473416       -0.07194514        4.67681895
 C            2.56823303       -0.20927725        4.07840179
 C            2.63821570       -1.53750236        3.50115815
 C            0.46229662       -1.23198332        4.28365002
 C            1.28452064       -2.06130020        3.43927367
 C           -0.79229271       -0.74756741        3.75897769
 C            0.46595047        1.10907485        4.38114479
 C           -0.88966939        0.64883161        4.13985065
 C            0.99887504        2.11064040        3.57333546
 C            2.98257446        0.73353938        3.05384342
 C            2.23247499        1.88013868        2.83109739
 C            3.38359604       -1.44323716        2.26044983
 C            3.46619488       -0.03225766        1.91502474
 C            3.05326450       -2.33432490        1.25341755
 C            0.80325252       -2.48443814        2.20405578
 C            1.74662205       -2.97459618        1.31215177
 C           -1.20769021       -1.12867667        2.48156205
 C           -0.41153834       -1.98055740        1.70120329
 C           -2.23022955       -0.39429960        1.87930156
 C           -1.75963378        1.45086172        3.42499475
 C           -2.63231221        0.80797861        2.46389695
 C            0.11054792        2.88269831        2.71881680
 C           -1.25764087        2.65866572        2.78045268
 C            2.01913114        2.33133164        1.46831478
 C            0.74121328        3.01655781        1.41401199
 C            3.14325403        0.36299657        0.61455113
 C            2.38383274        1.52125730        0.40245679
 C            3.24110836       -1.92135939       -0.12343736
 C            3.28494679       -0.56462603       -0.42331009
 C            1.34893739       -3.27234676       -0.04091423
 C            2.39800091       -2.78897696       -0.92359615
 C           -0.77682982       -2.24060968        0.36809478
 C            0.03161623       -3.07212447       -0.42048993
 C           -2.61155302       -0.66917470        0.56578244
 C           -1.83551999       -1.52548140       -0.21775266
 C           -3.55688126        0.15400380       -0.04728667
 C           -3.12118487        1.86990021        1.61620292
 C           -2.05299239        2.85686035        1.58014939
 C           -3.72151887        1.52233180        0.42247070
 C           -0.03982057        2.91359216        0.26253233
 C           -1.41871486        3.11268936        0.36366946
 C            1.77061669        1.72867331       -0.82902562
 C            0.49589807        2.30442079       -0.88157064
 C            3.00005898       -0.17241672       -1.72600933
 C            2.27952514        1.06878382       -1.93550923
 C            2.03330299       -2.39452299       -2.20453520
 C            2.47314214       -1.15137933       -2.66923297
 C           -0.23387836       -3.20145188       -1.77590320
 C            0.85137842       -2.93040382       -2.70909925
 C           -2.13015859       -1.67620020       -1.58142921
 C           -1.43579741       -2.62185409       -2.32761405
 C           -3.64994287        0.18330052       -1.49462792
 C           -2.91332118       -0.72243374       -2.24416448
 C           -3.47725152        2.38590970       -0.71393704
 C           -2.19519362        3.06623521       -0.78780304
 C           -3.61909380        1.57847309       -1.90466777
 C           -0.26336483        2.23160337       -2.05706499
 C           -1.57862444        2.69255677       -2.04893678
 C           -2.58429723        1.99007344       -2.83308785
 C            1.46105696        0.92066344       -3.12136239
 C            1.69256604       -0.41561848       -3.65536595
 C            0.18090048        1.46341718       -3.13943810
 C            0.27076904       -2.38353182       -3.91827051
 C           -1.17069612       -2.37178663       -3.73474953
 C            0.67686191       -1.05999087       -4.34867883
 C           -2.56393832       -0.32874102       -3.53670473
 C           -2.15510487        1.04784455       -3.74998472
 C           -0.74310096        0.98342354       -4.06617092
 C           -1.67184188       -1.15222381       -4.32439325
 C           -0.52784205       -0.32011083       -4.67499182
