   70
C70 / DATE: 7/ 1/2024 / Origin: Program Fullerene / C70 from database
 C            1.42547810       -0.09934413        4.26462515
 C            2.45966068       -0.26925458        3.25663999
 C            2.39468923       -1.64813076        2.80853257
 C            0.58137520       -1.28376190        4.23359589
 C            1.08868704       -2.15658078        3.18859753
 C           -0.80211796       -0.85071095        4.17478165
 C            0.56512985        1.06745609        4.20170636
 C           -0.81483696        0.60455293        4.19869091
 C            0.93934112        2.13087789        3.38992838
 C            2.68182446        0.74300924        2.32428346
 C            2.10650410        1.99810781        2.53052395
 C            3.24331926        0.42732419        1.08186922
 C            2.88736622       -1.96439770        1.55642135
 C            3.44629232       -0.90655783        0.73159099
 C            2.07731910       -2.79178238        0.68428672
 C            0.21766437       -2.62072087        2.20201796
 C            0.70672550       -2.89535399        0.92185216
 C           -1.67841292       -1.53310469        3.34047479
 C           -1.15349110       -2.52174525        2.40840278
 C           -2.74647405       -0.81207181        2.66621188
 C           -1.77714498        1.29994629        3.47363946
 C           -2.78781518        0.57108789        2.72064173
 C           -0.07079061        2.87060026        2.64751186
 C           -1.39716518        2.47044613        2.69698268
 C            1.91501912        2.89834860        1.40872513
 C            0.50583506        3.24924340        1.36837157
 C            3.31900375        1.39775441        0.08504358
 C            2.56805991        2.63524629        0.22025140
 C            3.24433587        0.99282379       -1.31242815
 C            3.28936008       -1.31254530       -0.65873587
 C            2.55829358       -2.56915783       -0.66529282
 C            3.01821029       -0.34658525       -1.62543330
 C            1.71719690       -2.85152735       -1.72405776
 C           -0.17262606       -3.05912150       -0.15804296
 C            0.34548799       -3.23829963       -1.44228978
 C           -2.04934597       -2.57223331        1.27211186
 C           -3.00084061       -1.47866851        1.40282413
 C           -1.54910267       -2.86995895        0.01137162
 C           -3.33809820       -0.74432968        0.26637093
 C           -3.07158684        1.31933704        1.50968321
 C           -2.18222301        2.46955291        1.47595113
 C           -3.35209785        0.65811534        0.31443034
 C           -0.22105241        3.05398418        0.19222059
 C           -1.60082906        2.82929568        0.26208638
 C            1.85619706        2.84247810       -1.02576794
 C            2.52476445        2.03418011       -2.02626786
 C            0.46297830        2.91036470       -1.02338747
 C            1.83197024        1.70263104       -3.17546652
 C            2.25935999       -0.67930504       -2.75325025
 C            1.68941230       -1.94916613       -2.86006325
 C            1.85402326        0.32487687       -3.63112555
 C           -0.45241346       -2.87733862       -2.60209234
 C            0.39541430       -2.11365616       -3.50580030
 C           -2.33994925       -2.52784506       -1.08335860
 C           -3.25093267       -1.40081707       -0.96078418
 C           -1.77726545       -2.51135242       -2.42138643
 C           -3.19935921       -0.64826844       -2.20086504
 C           -2.31522078       -1.35269352       -3.11835016
 C           -3.23459070        1.39831338       -0.86151679
 C           -2.30306069        2.51612216       -0.89426514
 C           -3.18470666        0.73561549       -2.15131809
 C           -0.23216114        2.62049195       -2.20074840
 C            0.46743435        2.17663877       -3.32369068
 C           -1.61538396        2.48603467       -2.16802475
 C           -2.26759520        1.48224291       -2.99792421
 C            0.66632583        0.12632002       -4.44622935
 C           -0.14016825       -1.06196083       -4.23858600
 C           -1.51037529       -0.63452470       -3.99684056
 C           -0.18984137        1.28881153       -4.26759647
 C           -1.53098349        0.82064086       -3.97226430
