   70
C70 / DATE: 7/ 1/2024 / Origin: Program Fullerene / C70 from database
 C            1.56130541        0.03596506        4.59843007
 C            0.74640361       -1.16393398        4.53747488
 C            1.40049309       -2.09562478        3.64006285
 C            2.60306770       -0.08197169        3.59011847
 C            2.56678550       -1.42645675        3.07868644
 C            2.44556531        0.99907449        2.64629087
 C            0.71965786        1.15645480        4.22800519
 C            1.35999885        1.83667046        3.12562575
 C           -0.61682195       -0.76845685        4.25075993
 C           -0.63017167        0.67030124        4.02535804
 C           -1.37897968       -1.58148373        3.42684563
 C            0.63147711       -2.90062250        2.79698278
 C           -0.74867168       -2.68516337        2.70831214
 C            1.28249039       -3.49938258        1.72001020
 C            2.84934984       -1.64852118        1.73996508
 C            2.54172142       -2.91988751        1.28691340
 C            2.51949616        0.72887560        1.27555646
 C            2.80357172       -0.57178879        0.82875459
 C            1.94109333        1.64994212        0.39385009
 C            0.55965820        2.42690706        2.16862878
 C            1.13218136        2.65320095        0.93153387
 C           -1.36231470        1.18744618        2.95707535
 C           -0.82705927        2.25559619        2.22206711
 C           -2.34219618       -0.96801747        2.53232530
 C           -2.38663146        0.41733008        2.40208875
 C           -1.41893124       -2.81335252        1.41778715
 C           -2.42880811       -1.78371448        1.33117481
 C            0.53427241       -3.79418789        0.51095729
 C           -0.67379046       -3.14169108        0.29616620
 C            2.71546997       -3.22837691       -0.10751228
 C            1.49794751       -3.88609829       -0.56101961
 C            2.83181618       -0.82437678       -0.55222756
 C            2.96761367       -2.13442683       -1.01526260
 C            1.86166621        1.35229372       -0.97087276
 C            2.41772247        0.16587563       -1.45128034
 C            1.20449734        2.23234180       -1.84511938
 C            0.46895596        3.52509303        0.09286789
 C            0.65980332        3.40883713       -1.33425352
 C           -1.59518255        2.85991917        1.22175474
 C           -0.94972553        3.72223276        0.33223922
 C           -3.10426872        0.93063107        1.33109920
 C           -2.79292017        2.25855848        0.83887121
 C           -2.66960848       -1.15174739        0.11992031
 C           -3.31962879        0.07527827        0.17249563
 C           -0.91383301       -2.48390414       -0.92269762
 C           -1.88375669       -1.46389429       -0.99689310
 C            1.16148456       -3.30715077       -1.83844661
 C            2.30865637       -2.51247879       -2.24615451
 C           -0.11283574       -2.78156500       -2.03805426
 C            2.28993387       -0.14980350       -2.80465902
 C            2.10061956       -1.53775282       -3.20000549
 C            0.86815668        1.82283925       -3.14203638
 C            1.42670765        0.65701686       -3.64866940
 C           -0.34163893        2.23785478       -3.70349522
 C           -0.51674757        3.99073762       -1.95427190
 C           -1.56291843        4.04442954       -0.94416545
 C           -1.06758586        3.34899933       -3.12417539
 C           -3.22193543        2.29825196       -0.55214944
 C           -3.35785043        0.91923611       -1.00101824
 C           -2.67607155        3.24125713       -1.41085468
 C           -2.39603452        2.85831512       -2.78330988
 C           -2.04736418       -0.72649049       -2.17873696
 C           -1.32822854        1.22870179       -4.04637944
 C           -2.71189253        0.50513955       -2.15823011
 C           -2.43999633        1.44996935       -3.14526669
 C           -0.32015243       -2.10804810       -3.23559796
 C            0.85035632       -1.59498498       -3.93045332
 C            0.55033735       -0.25220987       -4.37045897
 C           -1.35510300       -1.09842042       -3.32594504
 C           -0.88067848       -0.06558712       -4.23738252
