   70
C70 / DATE: 7/ 1/2024 / Origin: Program Fullerene / C70 from database
 C            1.36834430        0.00368030        3.99004923
 C            2.48581668       -0.06726745        3.06606363
 C            2.41895682       -1.35857842        2.39481363
 C            0.50770703       -1.13791647        3.73620374
 C            1.14779384       -1.96810825        2.73082085
 C           -0.83069753       -0.64257012        3.46967092
 C            0.54187433        1.19202099        3.99668180
 C           -0.82216993        0.79297346        3.66513235
 C            1.05824331        2.35773999        3.45376138
 C            2.85940085        1.06478308        2.34011460
 C            2.21109650        2.28351991        2.56382323
 C            3.55532001        0.89137830        1.14533850
 C            2.88914715       -1.46910453        1.09313292
 C            3.68302806       -0.44309956        0.58635984
 C            2.26360178       -2.35158879        0.20857575
 C            0.36820226       -2.48721201        1.70632741
 C            0.96906139       -2.81952257        0.49003375
 C           -1.52280476       -1.16790873        2.38800940
 C           -1.01028081       -2.29602677        1.75387233
 C           -2.47665708       -0.38732927        1.72970310
 C           -1.59656551        1.59104682        2.82645731
 C           -2.53499365        0.99567074        1.97601676
 C            0.13700378        3.33288547        2.90550222
 C           -1.22059949        2.91755686        2.60395320
 C            1.95493276        3.16287315        1.43209691
 C            0.71093729        3.85806839        1.67542221
 C            3.29184040        1.79637881        0.03783385
 C            2.24352106        2.70142147        0.15346506
 C            3.85177163       -0.30150093       -0.85141188
 C            3.49733459        1.06689086       -1.20001737
 C            2.79611610       -2.48612965       -1.07046835
 C            3.45896393       -1.34596318       -1.67525572
 C            2.02200536       -3.12978901       -2.10648632
 C            0.20158762       -3.46123976       -0.49367722
 C            0.67641136       -3.56045788       -1.80002845
 C           -1.80401653       -2.95670046        0.83645929
 C           -1.16733516       -3.62391840       -0.28572718
 C           -3.25511915       -0.97542176        0.71990479
 C           -3.00470425       -2.29773700        0.35336461
 C           -3.95255862       -0.17465936       -0.18209771
 C           -3.25838333        1.82587259        1.12242803
 C           -3.98242052        1.25633974        0.00823949
 C           -1.57037442        3.55218074        1.34606690
 C           -0.31649772        3.80272232        0.65849057
 C           -2.61918660        3.02441206        0.61800554
 C            1.25949603        2.75469761       -0.84579373
 C           -0.05217923        3.12659112       -0.53023808
 C            2.65578388        1.31199625       -2.27507349
 C            1.50799424        2.18416487       -2.09182133
 C            2.76645823       -1.05677771       -2.92145110
 C            1.93949627       -2.20750426       -3.23125206
 C            2.25447829        0.21600904       -3.14166411
 C           -0.17003460       -3.11287205       -2.89546948
 C            0.53028275       -2.00608137       -3.51771436
 C           -2.06158366       -3.51526385       -1.42527349
 C           -3.18625530       -2.68258493       -1.03666362
 C           -1.53066991       -2.99224141       -2.67065227
 C           -3.77359616       -0.39587573       -1.60794722
 C           -3.32704911       -1.63532311       -2.03143815
 C           -2.15074035       -1.69579790       -2.88489276
 C           -3.45202470        1.86447835       -1.20685029
 C           -2.41837491        2.79272126       -0.79947731
 C           -1.12121030        2.61228158       -1.27178435
 C           -3.10495616        0.78675985       -2.11171485
 C            0.39672867        1.62472992       -2.84180988
 C            0.83863608        0.38024119       -3.44377261
 C           -0.01098377       -0.72365999       -3.43144980
 C           -1.34120657       -0.56573885       -3.03250571
 C           -0.87924502        1.69983244       -2.30285424
 C           -1.79389981        0.67455198       -2.56746061
