   70
C70 / DATE: 7/ 1/2024 / Origin: Program Fullerene / C70 from database
 C            1.54472060       -0.08232399        4.75293540
 C            0.74566436       -1.26886268        4.51931500
 C            1.23668057       -1.92126923        3.31773187
 C            2.58663281       -0.05170329        3.74583536
 C            2.40636849       -1.18812113        2.86698602
 C            2.56803025        1.26342070        3.14270820
 C            0.68600834        1.06957810        4.52736140
 C            1.29775110        1.87855324        3.50161595
 C           -0.64040757       -0.85806435        4.54262209
 C           -0.65192331        0.58003482        4.29757385
 C           -1.54419753       -1.63373723        3.83914198
 C            0.30659100       -2.36513248        2.37829885
 C           -1.02947449       -2.48251859        2.76784931
 C            0.62002897       -2.30110410        1.01542192
 C            2.57755291       -0.97630694        1.50835653
 C            1.82008040       -1.71902364        0.60254143
 C            2.97747808        1.38355629        1.82090096
 C            3.17683930        0.21139236        1.08192746
 C            2.54444395        2.51947862        1.14774076
 C            0.51183111        2.40013846        2.47649175
 C            1.20640832        3.00804857        1.43941003
 C           -1.39110082        1.07575751        3.22099607
 C           -0.75671074        1.84326876        2.22504428
 C           -2.71635217       -0.96659895        3.31419974
 C           -2.58593474        0.42834131        2.93229474
 C           -2.06245065       -2.57936125        1.75271935
 C           -3.14665443       -1.70536133        2.14578616
 C           -0.35063738       -2.62012485        0.06401164
 C           -1.70199978       -2.58132569        0.41460913
 C           -0.01154671       -2.65630757       -1.29024161
 C            2.10859286       -1.61666034       -0.75729785
 C            1.22597198       -2.14222304       -1.70431970
 C            3.54104875        0.31063412       -0.25481113
 C            3.10943430       -0.73411972       -1.16494841
 C            2.76356793        2.63228904       -0.28124875
 C            3.37892625        1.58068475       -0.94626280
 C            0.54959942        3.25146357        0.17740130
 C            1.57710886        3.25009743       -0.85108623
 C           -1.35364963        1.98471163        0.95227674
 C           -0.67088548        2.64561981       -0.08108930
 C           -3.18797532        0.57662935        1.62689047
 C           -3.61317643       -0.74188069        1.17152864
 C           -2.62231343        1.44302996        0.70142260
 C           -2.62781149       -2.11759251       -0.51955098
 C           -3.45331603       -1.03984756       -0.17650778
 C           -1.04549436       -2.84414930       -2.21095615
 C           -2.37431456       -2.38335313       -1.85842711
 C           -0.85220201       -2.53504605       -3.61205660
 C            1.49376956       -1.92755279       -3.05973274
 C            0.44407910       -2.07289737       -4.04595089
 C            3.05932698       -0.15263932       -2.49358547
 C            3.01891210        1.29239351       -2.32571631
 C            2.25644305       -0.75647362       -3.44805118
 C            1.21267666        2.95767908       -2.15644432
 C            2.01291058        2.02938269       -2.94167014
 C           -1.09383158        2.52277241       -1.40821802
 C           -0.18302430        2.68877957       -2.44846059
 C           -3.06747654        1.32455211       -0.61206535
 C           -3.55053080        0.02864517       -1.05865966
 C           -2.29827552        1.90334623       -1.69075565
 C           -2.76677733       -1.40930257       -2.86411999
 C           -1.82661792       -1.51350625       -3.96366215
 C           -3.16504955       -0.15047079       -2.44560497
 C           -2.38727237        1.01504778       -2.84230842
 C            0.26278654       -0.77106926       -4.67128856
 C            1.37955795        0.06437672       -4.27020909
 C            1.12856996        1.37746075       -3.89454938
 C           -0.23644031        1.78712965       -3.58891671
 C           -1.08791674       -0.33127582       -4.36921565
 C           -1.28265136        0.86901338       -3.68395736
