   70
C70 / DATE: 7/ 1/2024 / Origin: Program Fullerene / C70 from database
 C            1.38774240       -0.20487835        5.23809753
 C            0.68785259       -1.37570368        4.74156974
 C            1.63943690       -2.18673360        4.00278996
 C            2.73640518       -0.22957984        4.69853569
 C            2.86525157       -1.42017349        3.87689388
 C            2.88668852        0.91986139        3.82416240
 C            0.71598778        0.96124625        4.69651658
 C            1.65807697        1.68501848        3.86051354
 C           -0.52136354       -0.92779395        4.06243868
 C           -0.52978335        0.52332274        4.08754814
 C           -0.91517461       -1.57859657        2.89482609
 C            1.18118270       -2.85927336        2.88352355
 C           -0.21512927       -2.71621773        2.50698976
 C            1.93934335       -2.76285957        1.64532632
 C            3.29403139       -1.00777380        2.54779366
 C            3.34444808        0.44417771        2.53558656
 C            2.77026529       -1.66734660        1.43303873
 C            2.89417273        1.09048394        1.39641351
 C            1.17691934        2.20886313        2.66679702
 C            1.96677690        2.13236146        1.51505748
 C           -0.96296755        1.19472036        2.95314055
 C           -0.20035159        2.26988184        2.50362976
 C           -1.64774616       -0.87527257        1.93044106
 C           -1.75758584        0.51396070        2.02908797
 C           -1.99898564       -1.50620189        0.73233814
 C           -0.30511546       -3.15756797        1.13423202
 C            1.03851595       -3.17613473        0.59163175
 C           -1.29824926       -2.64520447        0.31919170
 C            1.20282578       -2.67338150       -0.68877004
 C            2.68870594       -0.98103902        0.21351310
 C            2.94967258        0.39181462        0.20100511
 C            2.05498942       -1.57968888       -0.88848194
 C            2.77382446        1.11533334       -0.96291039
 C            1.49027774        2.74015614        0.34494650
 C            2.03714291        2.36333443       -0.88126862
 C           -0.68484641        3.00837620        1.44218710
 C            0.23569762        3.34835779        0.37027943
 C           -2.30037481        1.23954342        0.96763425
 C           -1.91259650        2.56915344        0.81521491
 C           -2.77698241       -0.81740359       -0.20607394
 C           -2.89222625        0.57299821       -0.10864804
 C           -3.09649104       -1.46274193       -1.40472364
 C           -1.15637773       -2.86548461       -1.04434561
 C            0.14406214       -2.85792399       -1.57258068
 C           -2.24497871       -2.55072432       -1.84276597
 C            0.36393029       -2.52346026       -2.89993739
 C            2.03117357       -0.91200946       -2.12327935
 C            2.37694886        0.43291366       -2.17553792
 C            1.27832411       -1.43543323       -3.17479552
 C            1.26116302        2.49937777       -2.10579902
 C            1.55678440        1.35138459       -2.94992975
 C           -0.55151499        3.46112237       -0.85133173
 C           -1.93771405        3.17499855       -0.49812647
 C           -0.03516660        2.99904849       -2.06178858
 C           -3.34781530        1.32004434       -1.19999453
 C           -2.77635229        2.63353104       -1.45359679
 C           -3.46976353       -0.69524735       -2.58153624
 C           -3.55859961        0.68316672       -2.48823026
 C           -2.09005269       -2.46719691       -3.28016580
 C           -0.75101975       -2.42462267       -3.82102691
 C           -2.79668149       -1.28263435       -3.73260936
 C            0.59953207       -0.52198823       -4.08472378
 C            0.57001682        0.83775083       -3.78472965
 C           -0.60302062       -1.18267891       -4.56193263
 C           -1.86594214       -0.47283519       -4.50538170
 C           -0.90924311        2.68785952       -3.10064367
 C           -2.33630847        2.65800788       -2.83274108
 C           -2.89779921        1.49726747       -3.49629701
 C           -0.60000909        1.57343973       -3.98650073
 C           -1.85384030        0.90092800       -4.31168741
