   70
C70 / DATE: 7/ 1/2024 / Origin: Program Fullerene / C70 from database
 C            1.23917886        0.14799095        4.68492947
 C            2.44140555        0.02848631        3.88838226
 C            2.43910033       -1.30265858        3.31088000
 C            0.39476443       -0.99902060        4.37445810
 C            1.08751995       -1.80881880        3.39178050
 C           -0.92369151       -0.49964471        4.05100494
 C            0.43317031        1.34101778        4.53176375
 C           -0.94505309        0.91685735        4.35878032
 C            0.72982555        2.25563325        3.44296150
 C            2.66264968        0.96411124        2.79599915
 C            1.69643513        1.91721533        2.49097316
 C            3.03459609       -1.19731877        1.99967726
 C            3.26116769        0.20617029        1.71844360
 C            2.51231355       -1.95579217        0.96561269
 C            0.43993236       -2.14621931        2.20476842
 C            1.20464493       -2.45254494        1.07636991
 C           -1.53584015       -0.91306528        2.87719703
 C           -0.91777956       -1.85726386        2.04772829
 C           -2.53517792       -0.10824921        2.34648283
 C           -1.56069711        1.81768687        3.39515578
 C           -0.54727911        2.78381450        3.00175471
 C           -2.39002890        1.28261721        2.41099358
 C           -0.62601693        3.34533221        1.73965531
 C            1.54004752        2.33942578        1.16658034
 C            0.52655820        3.24264854        0.86154923
 C            3.07767768        0.61755262        0.40446865
 C            2.22013101        1.69008360        0.12564597
 C            2.99112576       -1.67037674       -0.30438407
 C            3.29499410       -0.33108034       -0.59217840
 C            2.62811023       -2.54490670       -1.31685044
 C            0.56108541       -2.92418626       -0.07219153
 C            1.33421452       -3.18819964       -1.20794764
 C           -1.56750244       -2.24604361        0.87191741
 C           -0.82655611       -2.77907925       -0.19009431
 C           -3.37139087       -0.66660526        1.39547103
 C           -2.88133278       -1.81627661        0.65616168
 C           -4.04174331        0.21292416        0.46223987
 C           -2.67242679        2.05834454        1.28169203
 C           -1.80415350        3.08653691        0.92902771
 C           -3.53041795        1.55908597        0.30893693
 C            0.03983688        3.33302615       -0.49981977
 C           -1.41390146        3.23646019       -0.46248610
 C            1.89550652        1.97681353       -1.21183301
 C            0.72897235        2.68727249       -1.51439401
 C            3.33560423        0.12004223       -1.90407076
 C            2.56902432        1.30518057       -2.23578664
 C            2.84842599       -2.18431450       -2.70111579
 C            3.21823086       -0.81984905       -3.00168599
 C            0.72680108       -3.17822558       -2.52963989
 C            1.63260483       -2.49249025       -3.43366136
 C           -1.43524916       -2.94434596       -1.43458787
 C           -0.62753455       -2.92336446       -2.63659462
 C           -3.40951859       -1.72706576       -0.69585556
 C           -4.03542438       -0.42752116       -0.84000503
 C           -2.64230707       -2.20504123       -1.74168790
 C           -3.20072304        1.75410071       -1.09696926
 C           -2.07672551        2.50239747       -1.44568359
 C           -3.48067804        0.50929445       -1.79955250
 C            0.03602171        2.41010588       -2.68836253
 C           -1.40031460        2.19901408       -2.62484435
 C            1.89117938        1.05074331       -3.49892542
 C            2.24012383       -0.28815132       -3.93426898
 C            1.18166457       -1.27283662       -4.08048503
 C            0.58034539        1.46935697       -3.64677539
 C           -1.07667919       -1.78968095       -3.43606746
 C           -2.32727576       -1.32007934       -2.85711296
 C           -2.57973979        0.04854144       -2.75489116
 C           -1.69106125        0.95447331       -3.32172214
 C           -0.14507992       -0.87465500       -3.92498919
 C           -0.45569041        0.48461361       -3.93192273
