   70
C70 / DATE: 7/ 1/2024 / Origin: Program Fullerene / C70 from database
 C            1.29641553        0.00419658        4.39007344
 C            2.54761177       -0.16109062        3.66916536
 C            2.48918683       -1.44537796        2.98652515
 C            0.47594151       -1.16618670        4.12011096
 C            1.12677789       -1.93915688        3.09010953
 C           -0.86807265       -0.71384217        3.87026940
 C            0.48157897        1.18740483        4.15306401
 C           -0.86714981        0.73959471        3.86572526
 C            1.00783797        2.24457100        3.42689654
 C            3.11504771        0.93670758        3.03122525
 C            2.40754827        2.20749111        3.03673130
 C            3.72901194        0.77492935        1.72219326
 C            3.16485658       -1.62065641        1.79086695
 C            3.83377914       -0.48937756        1.16114879
 C            2.51589571       -2.37425011        0.73487196
 C            0.41950421       -2.25300272        1.92770561
 C            1.13097346       -2.55354817        0.76342594
 C           -1.62635419       -1.34483839        2.89679652
 C           -0.96891122       -2.04975914        1.86826256
 C           -2.82358600       -0.71180239        2.60532476
 C           -1.62875229        1.38410936        2.89114673
 C           -2.79690821        0.73824581        2.50105868
 C            0.24263337        2.78979299        2.31459217
 C           -0.98407155        2.22083553        1.97258754
 C            2.51426171        2.78398026        1.70930170
 C            3.29908718        1.88140563        0.88468998
 C            1.17832597        3.13707092        1.26145606
 C            2.86348050        1.63141005       -0.41360449
 C            3.67489739       -0.63945966       -0.27666993
 C            3.15252732       -1.97298215       -0.50368802
 C            3.17635168        0.41802911       -1.03664775
 C            2.49193415       -2.22692391       -1.68992353
 C            0.45163906       -2.77663112       -0.43401156
 C            1.17609299       -2.83503439       -1.62709579
 C           -1.65550476       -2.35953470        0.68245935
 C           -0.94088365       -2.69376642       -0.47172035
 C           -3.64555198       -1.22481738        1.54059155
 C           -3.02557326       -2.10528336        0.58125879
 C           -3.41656363        1.08387075        1.23971779
 C           -4.16774315       -0.08337145        0.80913590
 C           -1.40099903        2.24282821        0.63252384
 C           -2.68362572        1.79679309        0.29913426
 C            0.83383181        2.86042613       -0.05236711
 C            1.82321941        2.40700192       -0.92078892
 C           -0.50257381        2.63075504       -0.37350786
 C            1.52482155        2.31600843       -2.26888413
 C            2.65743925        0.15146797       -2.30773424
 C            2.41472061       -1.17224697       -2.68585627
 C            2.05080265        1.18775677       -3.01291804
 C            0.51863360       -2.54369726       -2.88845499
 C            1.28403967       -1.49396598       -3.54701788
 C           -1.60269501       -2.75693058       -1.70064017
 C           -0.86573626       -2.52189775       -2.92898176
 C           -3.59840647       -1.77003207       -0.71025053
 C           -4.16300641       -0.43136540       -0.59861510
 C           -2.89895148       -2.12343442       -1.85251126
 C           -3.06557022        1.71775164       -1.03747667
 C           -3.78535052        0.54194639       -1.51295065
 C           -0.85626450        2.53002004       -1.72175437
 C            0.14948811        2.51475411       -2.68682028
 C           -2.13605779        2.11679147       -2.07376164
 C            1.10739316        0.88414591       -4.07635397
 C            0.62723894       -0.47566608       -4.22526184
 C           -0.04648748        1.75218238       -3.90705619
 C           -1.55550497       -1.47174030       -3.66418767
 C           -2.79378848       -1.18053086       -2.95697004
 C           -3.19145703        0.14007786       -2.77590428
 C           -2.32156205        1.22003918       -3.20792101
 C           -0.82761183       -0.43641664       -4.24301261
 C           -1.24355217        0.94422597       -4.03882600
