   70
C70 / DATE: 7/ 1/2024 / Origin: Program Fullerene / C70 from database
 C            1.32057250        0.00273636        4.84716868
 C            2.49740006       -0.16251372        4.02259994
 C            2.51576895       -1.53750004        3.54851850
 C            0.49475124       -1.18490027        4.68283098
 C            1.24299253       -2.14482601        3.88969945
 C           -0.81138399       -0.75160500        4.21002563
 C            0.47672015        1.15487281        4.61399289
 C           -0.88316284        0.67067194        4.43859789
 C            0.76171699        2.02884875        3.48637690
 C            2.68074370        0.70116449        2.86603996
 C            1.73338066        1.67575967        2.55228457
 C            2.93361983       -1.51492749        2.15602336
 C            3.20218028       -0.13151152        1.80459789
 C            2.28291072       -2.32290212        1.22139060
 C            0.56947107       -2.86034519        2.91172010
 C            1.22720930       -3.12758578        1.64135504
 C           -1.30989408       -1.28194487        3.01930296
 C           -0.80913921       -2.50876599        2.60460564
 C           -1.99683605       -0.46241244        2.10200526
 C           -1.49621613        1.48585223        3.42212504
 C           -0.52462585        2.48443435        3.00667399
 C           -2.25580938        0.88054019        2.43019932
 C           -0.63063050        2.96643676        1.70989252
 C            1.55581890        2.05215207        1.21656856
 C            0.48563397        2.88751326        0.87196125
 C            2.98939896        0.24552090        0.49293720
 C            2.32195349        1.43832021        0.21387056
 C            2.36995839       -1.97578631       -0.13051350
 C            2.96836750       -0.75587293       -0.46091596
 C            1.56599137       -2.63463330       -1.07258897
 C            0.17537124       -3.45391924        0.70026424
 C           -1.07727295       -2.97206166        1.26536599
 C            0.39101163       -3.26762322       -0.65805553
 C           -2.28912515       -0.94505390        0.80625163
 C           -1.93508884       -2.25373274        0.44692691
 C           -2.88769510       -0.10256628       -0.14608605
 C           -2.71723956        1.73932327        1.44589499
 C           -1.89579359        2.89817392        1.13549212
 C           -3.19707744        1.20641405        0.19566684
 C           -2.06564138        3.20126071       -0.27127407
 C           -3.03993900        2.25686637       -0.79599695
 C            0.37460232        3.34700169       -0.43714671
 C           -0.94572512        3.52494821       -1.02397162
 C            2.16499984        1.81524927       -1.12624420
 C            1.24712495        2.80353150       -1.46085654
 C            3.07221719       -0.37104623       -1.78414184
 C            2.63063346        0.96760938       -2.13463291
 C            1.75605028       -2.37436051       -2.42974738
 C            2.62779336       -1.28333062       -2.81393966
 C            0.60981700       -2.35380113       -3.32531086
 C           -0.74150675       -3.19018498       -1.46336653
 C           -1.95348233       -2.62428752       -0.89202982
 C           -0.63219335       -2.73366092       -2.83679883
 C           -2.94606105       -0.47478311       -1.49380962
 C           -2.53770770       -1.74390080       -1.87696271
 C           -1.80518024       -1.92352315       -3.12409175
 C           -2.99388534        1.89994122       -2.13320039
 C           -3.13408550        0.49792844       -2.47663863
 C           -0.88067849        3.12363539       -2.41913836
 C            0.47796648        2.67659552       -2.69149397
 C           -1.95458347        2.45278569       -2.99003557
 C            1.89700181        0.87630932       -3.38810237
 C            1.95846942       -0.50374501       -3.84032017
 C            0.72483573       -1.18246306       -4.18437812
 C            0.71188268        1.59051436       -3.53504968
 C           -1.70980102       -0.86283121       -4.01558059
 C           -2.52175036        0.31757015       -3.78093314
 C           -1.69863744        1.48845007       -4.04271508
 C           -0.39907559       -0.41332524       -4.45927417
 C           -0.33941311        1.02930105       -4.26388516
