   70
C70 / DATE: 7/ 1/2024 / Origin: Program Fullerene / C70 from database
 C            1.42302122        0.13142179        5.04602940
 C            0.64726994       -1.09359373        5.09061272
 C            1.47773969       -2.15497985        4.55404971
 C            2.59965291       -0.12221010        4.22949309
 C            2.65781309       -1.53939891        3.96084759
 C            2.55464156        0.78764284        3.10465786
 C            0.62548757        1.13646175        4.36419810
 C            1.43231759        1.68514183        3.29864114
 C           -0.64030332       -0.83040568        4.47044981
 C           -0.64341086        0.54685868        3.99825421
 C           -1.22337767       -1.81000981        3.67847399
 C            0.91093817       -3.05174397        3.56200301
 C           -0.44823973       -2.97658637        3.26824969
 C            2.73286451       -1.98250328        2.58027748
 C            1.86955067       -3.14162922        2.47195325
 C            2.78842628        0.32300121        1.81025127
 C            2.74862665       -1.05196509        1.53559621
 C            2.49926669        1.20172642        0.77329506
 C            0.79502049        2.13141557        2.15094928
 C            1.56910762        2.21697439        1.00963773
 C           -1.15577063        0.83752876        2.73426852
 C           -0.55945406        1.85328744        1.96999619
 C           -2.03184709       -1.40295030        2.54435958
 C           -1.99473582       -0.08428080        2.10364213
 C           -0.91082313       -3.36897066        1.94644472
 C           -1.98219706       -2.46424427        1.55766756
 C            1.43106414       -3.51258188        1.21145225
 C            0.01421452       -3.76351908        0.99051827
 C            2.42827126       -1.48797539        0.23938707
 C            1.91553950       -2.76700763        0.06153041
 C            2.66748445        0.75955440       -0.53193075
 C            2.33410851       -0.56391145       -0.80746581
 C            2.56796172        1.70944249       -1.53683346
 C            1.03145785        2.87232198       -0.08449423
 C            1.82879138        2.91313033       -1.21619690
 C           -1.13578039        2.19235829        0.73976265
 C           -0.36206653        2.85652966       -0.22794740
 C           -2.43818217        0.19571560        0.81739074
 C           -2.26155184        1.48362743        0.33209095
 C           -2.14454843       -2.12507276        0.21705285
 C           -2.63187558       -0.85131765       -0.08996635
 C           -0.25795046       -3.47179731       -0.40320050
 C            0.97616431       -2.99860322       -1.01055726
 C           -1.44432633       -2.83860247       -0.75944753
 C            1.57897890       -0.86914303       -1.95870605
 C            0.87406797       -2.07577554       -2.04229805
 C            2.11455093        1.29552583       -2.84529228
 C            1.38779458        0.11186323       -2.94510320
 C            1.28295429        3.43676731       -2.44302213
 C            1.64175423        2.50173287       -3.49841841
 C           -0.94684985        3.19642845       -1.45871167
 C           -0.14585732        3.63791740       -2.51758974
 C           -2.88658870        1.82879705       -0.85370660
 C           -2.27274524        2.83364267       -1.69837984
 C           -2.97407866       -0.55006165       -1.40843628
 C           -3.35048977        0.75627504       -1.71581567
 C           -1.54039903       -2.41454976       -2.07778831
 C           -0.30193029       -2.10720559       -2.77760493
 C           -2.48853724       -1.37234909       -2.42100506
 C            0.30187311        0.01760150       -3.83515873
 C           -0.58093090       -1.04857914       -3.72097689
 C           -2.01108022       -0.78460153       -3.66219820
 C            0.51111514        2.41206818       -4.39042771
 C           -0.50927136        3.32009591       -3.88817169
 C           -0.12390601        1.12585758       -4.57092120
 C           -2.73189930        2.58072208       -3.05535703
 C           -3.26230989        1.22742325       -3.08937189
 C           -2.47776587        0.46465929       -4.04328574
 C           -1.79783957        2.71438667       -4.15298377
 C           -1.55097112        1.38222106       -4.68471325
