   70
C70 / DATE: 7/ 1/2024 / Origin: Program Fullerene / C70 from database
 C            1.44482138        0.00388119        4.87319686
 C            0.67385573       -1.20205101        4.63535579
 C            1.38714388       -2.01656651        3.66753514
 C            2.64363176       -0.07073701        4.06073005
 C            2.62146603       -1.32254767        3.32482251
 C            2.73496364        1.16006441        3.30641057
 C            0.65959638        1.12734335        4.38923406
 C            1.42758617        1.79712167        3.36080508
 C           -0.68010159       -0.79927394        4.32393082
 C           -0.65423919        0.62964053        4.04594899
 C           -1.42021191       -1.61279832        3.47997084
 C            0.66783939       -2.65903131        2.66071008
 C           -0.72861463       -2.61265364        2.67285804
 C            1.32864635       -2.99565756        1.48373168
 C            3.06060758       -1.33250829        2.00153932
 C            2.56815418       -2.31266337        1.14473783
 C            3.38304131        1.11753703        2.08600068
 C            3.63724780       -0.17899700        1.46441294
 C            2.91078511        1.98811898        1.03104575
 C            0.79826135        2.15142839        2.16685001
 C            1.58336343        2.41608026        1.04445182
 C           -1.27067848        1.08830468        2.88656087
 C           -0.57451712        1.93417779        2.00741464
 C           -2.41800664       -0.99514447        2.62619807
 C           -2.37390841        0.37977920        2.41640293
 C           -1.47293160       -2.76399614        1.42756492
 C           -2.61373481       -1.86899739        1.48321798
 C            0.57477472       -3.18844387        0.25443196
 C           -0.78981978       -2.91294113        0.22598194
 C            2.58100955       -2.09956593       -0.29503580
 C            1.41093336       -2.75270565       -0.84995644
 C            3.63711250        0.03209434        0.02080114
 C            3.46417639        1.45943167       -0.19711546
 C            2.98057155       -0.87262382       -0.81227108
 C            2.91334584        1.88580530       -1.38896228
 C            0.97321496        2.75277552       -0.16476609
 C            1.74439675        2.74251312       -1.32950832
 C           -1.19761345        2.35064740        0.82854458
 C           -0.42096662        2.76835706       -0.25731680
 C           -3.09232960        0.89889527        1.35115121
 C           -2.54033607        2.03082806        0.63659823
 C           -3.09009843       -1.31481446        0.30364938
 C           -3.60500222       -0.02089027        0.35074730
 C           -1.36922055       -2.44291402       -0.95704285
 C           -2.61821697       -1.80753049       -0.91138524
 C            0.80264846       -2.20053908       -1.96380472
 C           -0.57474290       -2.34052774       -2.10341232
 C            2.44160599       -0.43085327       -2.02571492
 C            2.62946006        0.89738722       -2.40748119
 C            1.46410654       -1.19640910       -2.67074967
 C            1.09943026        2.65323944       -2.62821544
 C            1.69230513        1.51916931       -3.32695815
 C           -1.02771370        3.03340415       -1.48728564
 C           -0.26494744        2.88087741       -2.71430403
 C           -3.10399301        2.01060493       -0.70339095
 C           -3.77633239        0.73029783       -0.88156826
 C           -2.37575439        2.56004089       -1.74647373
 C           -3.18165050       -1.30943698       -2.08305620
 C           -3.67265789        0.05809228       -2.09194890
 C           -1.15620328       -2.03633655       -3.32723897
 C           -2.51791161       -1.54779503       -3.34887898
 C            0.89842431       -0.72493926       -3.85474928
 C            0.89603631        0.70365826       -4.11561620
 C           -0.39189915       -1.24658436       -4.27404313
 C           -1.06851650        2.11034770       -3.65120479
 C           -2.38492932        1.92045954       -3.05426323
 C           -3.07921874        0.72729423       -3.23707933
 C           -2.53416415       -0.30332074       -4.10306156
 C           -0.47574106        1.09373905       -4.39589469
 C           -1.21764006       -0.12064209       -4.68378937
