   70
C70 / DATE: 7/ 1/2024 / Origin: Program Fullerene / C70 from database
 C            1.24108886       -0.04638114        4.47876691
 C            2.50279961       -0.35958937        3.84937531
 C            2.42687628       -1.72843916        3.36786905
 C            0.38432604       -1.21861771        4.35648427
 C            1.03980923       -2.14895132        3.46987914
 C           -0.93194768       -0.74938792        4.00272516
 C            0.48095017        1.08759625        3.98718573
 C           -0.90904900        0.70156666        4.10598174
 C            0.90120857        1.76040646        2.83727016
 C            2.94366605        0.46164432        2.74320328
 C            2.21361922        1.58746669        2.36571415
 C            3.07195231       -1.78062715        2.06642081
 C            3.43752026       -0.42250025        1.70001167
 C            2.52152476       -2.60084269        1.09998272
 C            0.38926231       -2.58435902        2.31686240
 C            1.18039724       -3.12596847        1.31290677
 C           -1.60797097       -1.33265310        2.93445272
 C           -0.90518516       -2.12512531        2.00787257
 C           -2.79863737       -0.72987501        2.55563008
 C           -1.85790610        1.41832648        3.39977358
 C           -2.98000684        0.68294540        2.84755166
 C           -0.05049425        2.43546367        2.05472929
 C           -1.40663931        2.34907957        2.37590992
 C            0.30338496        2.93555873        0.79963053
 C            2.59220410        2.19514895        1.17564164
 C            1.64836517        3.03990858        0.47856245
 C            3.33489682        0.00651628        0.37593152
 C            3.25742470        1.37741588        0.17113178
 C            2.60318980       -2.19510126       -0.28959155
 C            2.83611325       -0.86067523       -0.60752870
 C            0.60997478       -3.37946473        0.01516191
 C            1.55696091       -2.90988391       -0.98613374
 C           -1.48126728       -2.43141368        0.75399025
 C           -0.74142579       -3.16013756       -0.19880611
 C           -3.33336118       -0.96901368        1.23833747
 C           -2.75167918       -1.92390027        0.42005254
 C           -3.38160482        1.34307093        1.61956748
 C           -2.37199331        2.31922187        1.29048110
 C           -3.67085004        0.31822699        0.64736098
 C           -0.65932336        2.98574641       -0.21582864
 C           -1.89189408        2.37862800       -0.01014806
 C           -0.29681360        3.31346441       -1.51619825
 C            2.05271170        3.06166266       -0.91374779
 C            2.88404153        1.88651077       -1.12824900
 C            1.11096271        3.38460526       -1.87589288
 C            2.33522454       -0.35234922       -1.81713869
 C            2.54450703        0.99812930       -2.14013246
 C            1.05569352       -2.39046377       -2.16908080
 C            1.56345711       -1.18181704       -2.65467350
 C           -1.16013150       -3.20748338       -1.52508988
 C           -0.21773822       -2.80502941       -2.55873524
 C           -3.14965345       -1.88631836       -0.91175970
 C           -2.45633627       -2.69105198       -1.88219079
 C           -3.33114081        0.52815007       -0.68416216
 C           -2.42275030        1.54697441       -1.01118766
 C           -3.41025042       -0.58442836       -1.50757934
 C           -1.00671704        2.66442652       -2.60425712
 C           -1.88102691        1.61571053       -2.30437289
 C            1.25404915        2.78595024       -3.18986921
 C            1.99458062        1.54051025       -3.29766470
 C           -0.07832567        2.54660199       -3.71231808
 C            1.04408166       -0.68841970       -3.84834981
 C            1.27130185        0.69253873       -4.21396246
 C           -0.03194149        1.30490542       -4.44700128
 C           -0.94960724       -2.06499864       -3.57468714
 C           -2.31009054       -1.90143076       -3.09381932
 C           -2.79175024       -0.55769163       -2.81507309
 C           -1.99698705        0.52246653       -3.17869172
 C           -0.33749182       -0.97951159       -4.17961265
 C           -1.02813852        0.29735659       -4.15887434
