   70
C70 / DATE: 7/ 1/2024 / Origin: Program Fullerene / C70 from database
 C            1.29213983        0.01072248        4.34441479
 C            2.50571384       -0.27138311        3.62099133
 C            2.50455199       -1.69077867        3.31521294
 C            0.46492115       -1.19131061        4.31614703
 C            1.14653235       -2.17020506        3.50080251
 C           -0.86675765       -0.77537336        3.93425290
 C            0.45313725        1.09967466        3.89137225
 C           -0.90130620        0.65808260        4.14536649
 C            0.72313799        1.75019036        2.68071470
 C            2.74902147        0.43303865        2.38050563
 C            1.81343029        1.35245223        1.89229169
 C            3.11696935       -1.85726373        2.01074436
 C            3.33022182       -0.52799542        1.45923954
 C            2.61253103       -2.84206251        1.17773329
 C            0.49091791       -2.74197520        2.41295527
 C            1.27968257       -3.36416455        1.44564319
 C           -1.43439461       -1.28828413        2.76959959
 C           -0.82145626       -2.35356714        2.09721433
 C           -2.43931991       -0.54880547        2.13387549
 C           -1.91816586        1.37192342        3.55106400
 C           -2.85730940        0.64635609        2.71692803
 C           -0.30512074        2.50840463        2.10950954
 C           -1.54338511        2.52529025        2.76377260
 C           -0.21139053        2.91793473        0.77104660
 C            1.83243666        1.65039470        0.52720753
 C            0.82170500        2.43582985       -0.03486389
 C            3.14543898       -0.31216106        0.10098681
 C            2.70687578        0.94267539       -0.30055200
 C            2.71580973       -2.65956462       -0.25608127
 C            2.98764281       -1.39408132       -0.77179553
 C            0.70183042       -3.77147009        0.17781997
 C            1.66916993       -3.45819022       -0.86388537
 C           -1.43551776       -2.85846308        0.95248806
 C           -0.65021799       -3.56181316       -0.04706730
 C           -2.75056899       -0.80783562        0.79556047
 C           -2.40571393       -2.03425715        0.25370341
 C           -3.09021234        0.24107650       -0.06306254
 C           -3.51193535        1.64657421        1.89364661
 C           -2.74468042        2.87850596        2.04066760
 C           -3.65021721        1.39720356        0.47374993
 C           -1.28118964        3.57016800        0.16111244
 C           -2.60808933        3.46634660        0.73350415
 C           -3.39701631        2.65818124       -0.18144952
 C           -1.46715420        3.40946080       -1.26355747
 C           -2.68365139        2.62991944       -1.43293976
 C            0.81052467        2.68534748       -1.41737367
 C           -0.38444133        3.05281944       -2.05195262
 C            2.79037346        1.25872961       -1.64410907
 C            1.88788525        2.25027111       -2.19098046
 C            2.71090761       -1.13771058       -2.11755466
 C            2.87978584        0.16192147       -2.59164717
 C            1.22997709       -3.11149476       -2.13165099
 C            1.89875970       -2.02491927       -2.83056933
 C           -1.10840556       -3.13390808       -1.35950434
 C           -2.12840777       -2.11722057       -1.16790417
 C           -0.19766440       -2.98776164       -2.39524675
 C           -2.64469600        0.22906074       -1.39707430
 C           -2.57767070        1.42975437       -2.12457817
 C           -2.09230194       -0.94772332       -1.92562086
 C           -0.70735497        2.45308584       -3.26578338
 C           -1.78717998        1.48226729       -3.26374414
 C            1.68624125        1.91522239       -3.59192282
 C            2.20896089        0.57616399       -3.81104739
 C            0.34345231        1.95386201       -4.12241658
 C            0.94961056       -1.51542074       -3.80640974
 C           -0.37394117       -1.89891994       -3.33948202
 C           -1.32824227       -0.91096681       -3.09725219
 C           -1.26509710        0.26199918       -3.83546333
 C            1.13554515       -0.24793255       -4.33772884
 C           -0.02566760        0.60407231       -4.51957345
