   70
C70 / DATE: 7/ 1/2024 / Origin: Program Fullerene / C70 from database
 C            1.39401750       -0.09376485        4.08471731
 C            2.49422385       -0.22730112        3.14568416
 C            2.42880903       -1.56407294        2.57614658
 C            0.53490582       -1.25736058        3.93294400
 C            1.16009353       -2.15111458        2.98212839
 C           -0.80415849       -0.78737413        3.65306404
 C            0.55581533        1.08762490        4.02480234
 C           -0.82444522        0.64112433        3.91153955
 C            0.98933735        2.17983982        3.28503412
 C            2.84083347        0.84338012        2.32718620
 C            2.19351541        2.07010136        2.47109952
 C            3.56203161        0.58721852        1.16726020
 C            2.89211387       -1.78208693        1.27831027
 C            3.58835123       -0.76483678        0.62667430
 C            2.31536154       -2.80325269        0.52311890
 C            0.37891337       -2.77330230        2.01739002
 C            1.04678856       -3.36835343        0.95366092
 C           -1.47413272       -1.28824357        2.53973898
 C           -0.96592595       -2.40663890        1.86969708
 C           -2.52196489       -0.54910707        1.97863559
 C           -1.74894309        1.42363835        3.23645121
 C           -2.72441207        0.77140316        2.38025585
 C            0.02586888        2.98723308        2.55264427
 C           -1.31532412        2.63444141        2.55185367
 C            2.02537011        2.93816442        1.31567137
 C            0.64916485        3.40807894        1.30925125
 C            3.49422935        1.51721880        0.04964826
 C            2.62678575        2.60937962        0.10566368
 C            3.52778236       -0.66399942       -0.82426579
 C            3.62704358        0.74013227       -1.17635303
 C            2.27521402       -2.69402817       -0.92721647
 C            2.67474604       -1.50582820       -1.53252348
 C            0.31347866       -3.78617170       -0.22689122
 C            1.08953512       -3.39164710       -1.39300353
 C           -1.72975555       -2.99685408        0.86840691
 C           -1.06855229       -3.66630906       -0.23985148
 C           -3.18566100       -1.02050859        0.84278089
 C           -2.87594327       -2.28104327        0.33820666
 C           -3.92186581       -0.12977943        0.06025935
 C           -3.13796797        1.75098325        1.39502107
 C           -2.06434707        2.72538033        1.31069092
 C           -3.71653223        1.29822087        0.22358776
 C           -0.06980978        3.37883465        0.11512678
 C           -1.38162279        2.89138088        0.10555756
 C            2.06033909        3.10521480       -1.06647227
 C            0.64461998        3.44521347       -1.07714859
 C            3.02798631        1.18730330       -2.34085075
 C            2.37679098        2.48232516       -2.33790481
 C            2.02632152       -1.04670194       -2.68725320
 C            2.19915308        0.27293255       -3.10747521
 C            0.44449036       -2.94060775       -2.53306600
 C            0.93919473       -1.75180780       -3.20441314
 C           -1.75025588       -3.28625228       -1.46629205
 C           -2.93255967       -2.52600178       -1.09756979
 C           -1.01008120       -2.91536472       -2.58403966
 C           -4.05121996       -0.36930116       -1.36619382
 C           -3.40371867       -1.53081132       -1.94486665
 C           -3.19328982        1.78695873       -1.03844679
 C           -1.92360388        2.35561891       -1.06819880
 C           -3.54963926        0.81281777       -2.05202090
 C            0.06414983        2.88788850       -2.28458621
 C            1.14340669        2.37015084       -3.09819299
 C            1.04032010        1.01229486       -3.58663736
 C           -1.10708363        2.15270463       -2.18080775
 C           -0.20896055       -1.00489668       -3.69144575
 C           -1.41018890       -1.75651631       -3.36801167
 C           -2.57171338       -1.06801021       -3.04564083
 C           -2.53146325        0.38322456       -2.99061695
 C           -0.19816569        0.38166630       -3.57397163
 C           -1.29779482        1.02915740       -2.99768134
