   70
C70 / DATE: 7/ 1/2024 / Origin: Program Fullerene / C70 from database
 C            1.55725257       -0.00246176        4.63010206
 C            0.73262335       -1.19029303        4.56168853
 C            1.16537724       -1.98014298        3.42132746
 C            2.51632182       -0.07489356        3.54482384
 C            2.24355440       -1.26427048        2.76364245
 C            2.47538345        1.19331604        2.85877166
 C            0.69521042        1.14141437        4.37440007
 C            1.27417513        1.88592890        3.28118986
 C           -0.64933684       -0.75865879        4.60061637
 C           -0.65677955        0.65213668        4.22818230
 C           -1.59181564       -1.59200602        4.02279164
 C            0.19263203       -2.58319489        2.63760428
 C           -1.12137451       -2.63099672        3.11592187
 C            0.43044756       -2.75328835        1.27369260
 C            2.23611987       -1.14848752        1.37431571
 C            1.38004345       -1.95224035        0.62167264
 C            2.73833671        1.21134362        1.50263903
 C            2.76359119        0.00385339        0.79192397
 C            2.34023270        2.34626217        0.81484257
 C            0.45025992        2.39033447        2.27877633
 C            1.08856836        2.88399586        1.13775838
 C           -1.42232318        1.06898973        3.13626293
 C           -0.86563224        1.90795114        2.15555338
 C           -2.74108402       -0.97592269        3.39091431
 C           -2.58652295        0.35906631        2.84213004
 C           -2.21015220       -2.92935024        2.20069404
 C           -3.17836505       -1.85330668        2.32038323
 C           -0.50904855       -3.45066688        0.52966641
 C           -1.90424350       -3.38924402        0.93082693
 C           -0.47743380       -3.36871519       -0.91533039
 C            1.35835921       -1.81451746       -0.77576375
 C            0.53692484       -2.65172938       -1.54314445
 C            2.88072553        0.07165158       -0.59685112
 C            2.12254157       -0.80445222       -1.39200022
 C            2.86238224        2.50017581       -0.45750554
 C            3.29950418        1.29150292       -1.12476253
 C            2.16162630        3.30463054       -1.43608686
 C            0.29982958        3.44813455        0.14193190
 C            0.84041014        3.65079743       -1.19154046
 C           -1.54524022        2.07529908        0.94184186
 C           -1.06290447        2.97824094        0.00629487
 C           -3.08456763        0.33301602        1.47671909
 C           -3.45219739       -1.03272322        1.15287968
 C           -2.43973265        1.09839547        0.51856770
 C           -2.61832144       -2.82364348       -0.19781730
 C           -1.85157606       -3.18895185       -1.36928102
 C           -3.12409374       -1.52731134       -0.10280868
 C           -2.05988250       -2.47128182       -2.53238750
 C            0.39294436       -2.41568545       -2.90510527
 C           -0.95056456       -2.38121072       -3.45609180
 C            2.06179453       -0.62154869       -2.78708543
 C            1.14114707       -1.35019625       -3.53325445
 C            3.22135502        1.52852995       -2.54404900
 C            2.54896954        2.80737869       -2.74327427
 C            2.55735087        0.54729071       -3.36526259
 C            1.52848562        2.61482830       -3.75352631
 C            1.70276319        1.27573004       -4.28445828
 C           -0.20268731        3.29817898       -2.14864170
 C           -1.30361927        2.71727526       -1.40268499
 C            0.13087262        2.76139648       -3.38472759
 C           -2.41518297        0.66699867       -0.81246992
 C           -2.85105969       -0.62458045       -1.13170543
 C           -2.61924287       -1.13187801       -2.40606470
 C           -1.82763828        1.48393821       -1.78689354
 C           -1.09451406       -1.13502187       -4.17544790
 C            0.23740860       -0.63806406       -4.43462985
 C            0.38912588        0.73254007       -4.55006477
 C           -0.57589011        1.58299094       -3.85998991
 C           -1.99370320       -0.29171383       -3.40988941
 C           -1.56792065        0.98913692       -3.07075306
