   70
C70 / DATE: 7/ 1/2024 / Origin: Program Fullerene / C70 from database
 C            1.16419872       -0.11438840        4.88899043
 C            2.50285084       -0.48566401        4.47618922
 C            2.48261443       -1.90171000        4.15105430
 C            0.29626955       -1.26358520        4.66658672
 C            1.09334732       -2.32489331        4.09993527
 C           -0.85125378       -0.80132183        3.91792267
 C            0.53250850        1.04210174        4.27362396
 C           -0.80436230        0.64467920        3.88036071
 C            1.26435606        1.85687471        3.42220508
 C            3.11585746        0.22311932        3.36537857
 C            2.57758502        1.43292976        2.94674566
 C            3.03292753       -2.05465311        2.81880176
 C            3.50086949       -0.75729760        2.36369638
 C            0.80327611       -2.75734154        2.74277654
 C            2.04855262       -2.73939842        1.99953034
 C           -1.24851004       -1.46073916        2.75585360
 C           -0.35476516       -2.31842788        2.09841051
 C           -2.23130402       -0.83575629        1.99343997
 C           -1.42852213        1.25822035        2.80240056
 C           -2.43780583        0.53621351        2.18274023
 C            0.58285659        2.51053571        2.31707491
 C           -0.74316170        2.20424660        2.02942073
 C            2.67372617        1.79793993        1.54467263
 C            1.52161063        2.61598431        1.21942214
 C            3.33674537       -0.45944285        1.01371382
 C            3.10564033        0.86143865        0.60848217
 C            1.99567714       -2.40616150        0.65380448
 C            2.93118732       -1.49406531        0.17338523
 C           -0.41164282       -2.41433113        0.70270078
 C            0.77966280       -2.51965069       -0.02199741
 C           -2.58393795       -1.40478792        0.77433819
 C           -1.59199349       -2.06649866        0.04476257
 C           -3.71599233       -0.91398794        0.13518156
 C           -3.23171296        1.22323875        1.28016188
 C           -4.08762000        0.46019693        0.39770498
 C           -1.23386813        2.50588383        0.75290664
 C           -2.57956628        2.25284369        0.49304037
 C            1.04270623        2.56991254       -0.08066451
 C           -0.33619322        2.60612501       -0.31814850
 C            2.83562493        1.10625577       -0.74222097
 C            1.88818095        2.08408925       -1.07349399
 C            2.98210574       -1.28110172       -1.19085803
 C            3.10507853        0.08586470       -1.65060795
 C            0.77400765       -2.30760249       -1.40150218
 C            1.96046363       -1.89906338       -2.01017774
 C           -1.62948226       -2.08003879       -1.35472468
 C           -0.43632703       -2.14647244       -2.07808381
 C           -3.89228563       -1.14488147       -1.28085848
 C           -2.81138009       -1.76349786       -2.02084948
 C           -4.12727066        1.15453307       -0.87396702
 C           -3.03464788        2.11174994       -0.87977137
 C           -4.16617296        0.14405711       -1.90604593
 C           -0.79722633        2.53049024       -1.63819843
 C           -2.09326131        2.07405340       -1.90436499
 C            1.51221960        2.27173541       -2.39867861
 C            0.12957219        2.62130746       -2.67198560
 C            2.54817126        0.14161058       -2.99087537
 C            1.91415605       -1.14880320       -3.24955170
 C            1.93057617        1.31255074       -3.40520212
 C           -0.42605256       -1.81567766       -3.43817577
 C            0.76373559       -1.21484380       -4.01966458
 C           -2.73867397       -1.05960170       -3.28622254
 C           -3.25390834        0.27028353       -3.02034000
 C           -2.36771585        1.34521092       -3.07520820
 C           -1.57970865       -1.16183075       -4.03547174
 C           -0.21138025        2.08886991       -3.97355429
 C            0.89155325        1.24920271       -4.41664739
 C            0.34942257       -0.04681062       -4.77698273
 C           -1.43621760        1.32871099       -4.10823351
 C           -1.09597080        0.04126834       -4.69408598
