   70
C70 / DATE: 7/ 1/2024 / Origin: Program Fullerene / C70 from database
 C            1.27247935        0.02364790        4.43130628
 C            2.49455042       -0.33282148        3.75203556
 C            2.44687169       -1.75944621        3.47417093
 C            0.45710117       -1.17802781        4.54089041
 C            1.09348274       -2.21088753        3.74284050
 C           -0.91444321       -0.80479437        4.24813005
 C            0.43641809        1.05763725        3.85802610
 C           -0.93631353        0.63797094        4.06477202
 C            0.78305213        1.66217690        2.64546380
 C            2.81833997        0.33742555        2.51049327
 C            1.98279984        1.33282026        1.99737490
 C            3.00125710       -1.97030592        2.14971577
 C            3.33076229       -0.66734811        1.59877759
 C            2.40420814       -2.90619385        1.32377568
 C            0.37456422       -2.84132160        2.72738851
 C            1.06036862       -3.37690476        1.63771559
 C           -1.66419034       -1.61200634        3.40216833
 C           -1.00762854       -2.66870624        2.64396511
 C           -2.67681522       -1.01238589        2.54748529
 C           -1.91836599        1.21232229        3.27481801
 C           -2.85825303        0.36241168        2.55543854
 C           -0.20143098        2.37357855        1.95261698
 C           -1.53230199        2.27244603        2.36334174
 C            0.08309987        2.92467436        0.70153518
 C            2.15403803        1.69395362        0.65984581
 C            1.30630747        2.64690535        0.09196818
 C            3.18075896       -0.43179938        0.23828739
 C            2.93785985        0.87397488       -0.16130648
 C            2.47342174       -2.71517271       -0.11327713
 C            2.83924572       -1.47393388       -0.63224136
 C            0.36287338       -3.57726517        0.37657947
 C            1.34031529       -3.41272583       -0.68732587
 C           -1.67179661       -2.76828282        1.35149520
 C           -2.66833588       -1.71667843        1.27754886
 C           -0.92599137       -3.07136217        0.21744847
 C           -2.80315949       -1.01067181        0.08798809
 C           -3.18923580        1.04003395        1.31173306
 C           -2.58684148        2.35843045        1.37390841
 C           -3.15646966        0.34413943        0.10417465
 C           -0.95983609        3.46632584       -0.05371702
 C           -2.31757044        3.01369109        0.18737215
 C           -0.81344103        3.62050388       -1.49175983
 C            1.55633476        3.10731337       -1.20002914
 C            0.44433433        3.47949823       -2.05682333
 C            3.07001940        1.16397358       -1.50775493
 C            2.51392607        2.39672342       -2.02038487
 C            2.51775540       -1.17367753       -1.96314944
 C            2.78337690        0.10387525       -2.45492869
 C            0.90133377       -3.03662142       -1.94366258
 C            1.60993573       -1.98062078       -2.64968290
 C           -1.31916143       -2.55867068       -1.02302110
 C           -2.32447977       -1.58603381       -1.08709207
 C           -0.51477297       -2.79557211       -2.13612082
 C           -2.64793774       -0.99119744       -2.30284923
 C           -3.13517123        1.07335014       -1.08758562
 C           -2.78558393        2.42562656       -1.05523921
 C           -1.96802718        2.99099935       -2.11873452
 C           -3.09788361        0.38817450       -2.29832604
 C           -1.81665979        2.28700221       -3.30586874
 C           -2.54296164        1.04144002       -3.47220279
 C            0.59681739        2.77193011       -3.32046158
 C            1.88338598        2.10301003       -3.29612386
 C            1.93270983        0.66440136       -3.49520980
 C           -0.48962164        2.10728778       -3.87515137
 C            0.66469632       -1.37133273       -3.57495177
 C           -0.64485226       -1.95697996       -3.31201516
 C           -1.77951858       -1.17779225       -3.45389431
 C           -1.66459880        0.09476577       -4.13774439
 C            0.77865523       -0.01477641       -3.87640848
 C           -0.35380593        0.70787554       -4.25755148
