   70
C70 / DATE: 7/ 1/2024 / Origin: Program Fullerene / C70 from database
 C            1.52941185        0.03427554        5.08162254
 C            0.75647812       -1.19128670        5.00444088
 C            1.64254251       -2.21354783        4.49276937
 C            2.70235121       -0.13937558        4.23891514
 C            2.79675051       -1.54129268        3.90756062
 C            2.60945431        0.82082024        3.15738449
 C            0.72798344        1.09577002        4.50065413
 C            1.50964227        1.71695480        3.45785686
 C           -0.47497531       -0.89681341        4.28357705
 C           -0.55430211        0.54545337        4.12373645
 C           -0.88853841       -1.71318573        3.22500541
 C            1.12572697       -3.12545145        3.49724734
 C           -0.19805708       -2.89290397        2.94220018
 C            2.85738968       -1.92130404        2.50846806
 C            2.05416555       -3.11469859        2.37844251
 C            2.77028280        0.41344820        1.83053388
 C            2.75681443       -0.95173617        1.50896365
 C            2.40894919        1.32987520        0.84028255
 C            0.83816512        2.25467089        2.37290610
 C            1.55850728        2.37853680        1.19756168
 C           -1.15718278        1.03530147        2.97485813
 C           -0.54713165        2.07911558        2.26692229
 C           -1.73160855       -1.17236039        2.24527214
 C           -2.02110971        0.19321034        2.29193723
 C           -1.96691759       -1.88833820        1.06238042
 C           -0.12602220       -3.33976746        1.56891595
 C            1.26703689       -3.26987656        1.17382855
 C           -1.04768484       -2.85835213        0.65833431
 C            2.35015807       -1.34415985        0.22798418
 C            1.56734098       -2.49279380        0.05960881
 C            2.47769089        0.94193444       -0.49696219
 C            2.39058461       -0.41543009       -0.80601173
 C            2.21228204        1.88573892       -1.49250806
 C            1.00225653        3.16433310        0.20717139
 C            1.45400342        3.00609444       -1.15927107
 C           -1.19327404        2.58269832        1.12728101
 C           -0.44437586        3.29387978        0.18679958
 C           -2.82416186        0.75652916        1.31705514
 C           -2.41199027        2.02472964        0.73801897
 C           -2.84196651       -1.37135483        0.09719692
 C           -3.33735944       -0.07705296        0.24957298
 C           -2.85394215       -1.95744483       -1.17037492
 C           -0.67142080       -2.87199916       -0.67603420
 C            0.64268189       -2.51434814       -0.98711685
 C           -1.67122997       -2.67617065       -1.60677554
 C            1.91802750       -0.79195938       -2.05845041
 C            0.89923917       -1.74800259       -2.12686331
 C            2.26494387        1.48716049       -2.82609194
 C            2.14148941        0.07151089       -3.12094270
 C            1.46258957        2.20801082       -3.79950150
 C            0.34758934        3.41020112       -2.01282051
 C           -0.85798488        3.31367810       -1.20952620
 C            0.32086542        2.96439798       -3.32191966
 C           -2.79073162        2.01184313       -0.66876628
 C           -3.52322823        0.78307189       -0.91290259
 C           -1.90202923        2.49408798       -1.62582284
 C           -3.35058196       -1.20399329       -2.30881200
 C           -3.50942210        0.23022410       -2.18186174
 C           -1.32431122       -2.20757466       -2.93070075
 C           -0.04482897       -1.71522847       -3.16481458
 C           -2.46114244       -1.45771205       -3.42983583
 C            1.35070354       -0.07272993       -4.32374720
 C            0.98902591        1.25579438       -4.78592170
 C            0.14114614       -0.86252705       -4.25258728
 C           -0.87790729        2.30214404       -3.81096993
 C           -1.89397283        1.95278676       -2.91762358
 C           -2.71085875        0.85914753       -3.22267883
 C           -2.20577809       -0.19619833       -4.09416609
 C           -0.46042498        1.33034878       -4.80686853
 C           -0.96781670       -0.02080728       -4.69401636
