   70
C70 / DATE: 7/ 1/2024 / Origin: Program Fullerene / C70 from database
 C            1.59960414        0.14321339        4.95283426
 C            0.80457678       -1.07121742        5.00463788
 C            1.54104949       -2.10736390        4.30677806
 C            2.68569744       -0.07889381        4.01340837
 C            2.69617425       -1.48419291        3.67837811
 C            2.54869386        0.88622012        2.93684661
 C            0.76217575        1.19642117        4.40982771
 C            1.44566206        1.76849788        3.26394401
 C           -0.54051775       -0.74790955        4.55854452
 C           -0.56963307        0.66036735        4.19910844
 C           -1.22837024       -1.65405269        3.76366421
 C            0.85466050       -2.89048624        3.29269170
 C           -0.52305611       -2.78436607        3.16655015
 C            2.68199693       -1.85306207        2.27886728
 C            1.66898567       -2.87168280        2.08866623
 C            2.68199710        0.47963511        1.61064655
 C            2.81298249       -0.87950500        1.29590003
 C            2.22441949        1.34813198        0.61427331
 C            0.66650852        2.23748184        2.21356816
 C            1.22311387        2.26787349        0.93330478
 C           -1.24789104        1.06474565        3.05195201
 C           -0.71844074        2.13019619        2.32597724
 C           -2.16402839       -1.15017053        2.77294275
 C           -2.13824067        0.19143411        2.41444942
 C           -1.12099205       -3.03227231        1.86890674
 C           -2.26334683       -2.14397869        1.72630535
 C            1.05527942       -2.95498237        0.83848887
 C           -0.30872687       -3.25481948        0.75921330
 C            2.55427465       -1.26434997       -0.01059661
 C            1.67905275       -2.33093484       -0.24724481
 C            2.42638173        1.00077509       -0.72019589
 C            2.74429368       -0.32709071       -1.00957695
 C            1.93021212        1.83307123       -1.72689112
 C            0.49008115        2.86716668       -0.09175093
 C            0.91534106        2.74775520       -1.41711749
 C           -1.49613996        2.68771449        1.32685742
 C           -0.82614902        3.24746497        0.17060876
 C           -2.69713013        0.56970743        1.19089493
 C           -2.61337668        1.91174249        0.82672512
 C           -2.62552156       -1.74231079        0.44685954
 C           -2.96452221       -0.40468575        0.21606057
 C           -0.92671912       -3.23811002       -0.48640310
 C           -2.18737201       -2.52656361       -0.61791779
 C            1.17321646       -2.52832535       -1.53612548
 C           -0.14211364       -2.95642968       -1.67516535
 C            2.68900939       -0.77986518       -2.31551130
 C            1.76540501       -1.85868921       -2.60659122
 C            2.25124350        1.54517238       -3.05477956
 C            2.60859607        0.18478298       -3.39148490
 C            1.40096298        2.01569266       -4.12930907
 C            0.10019513        3.27319553       -2.42409780
 C            0.29556821        2.88584304       -3.80508073
 C           -1.79810666        3.26563295       -0.90671899
 C           -2.84591470        2.31917845       -0.54869802
 C           -1.33318813        3.32029972       -2.21060074
 C           -3.34281940       -0.02031447       -1.07152972
 C           -3.26666456        1.37453867       -1.47106056
 C           -2.28066957       -2.02610436       -1.97762379
 C           -1.01107032       -2.28605375       -2.63459484
 C           -2.92882530       -0.82752121       -2.20815040
 C            0.92155355       -1.39869425       -3.69712448
 C            1.61725308       -0.30128230       -4.33797302
 C            0.85173731        0.83830356       -4.78590560
 C           -0.45727982       -1.34334534       -3.49885135
 C           -0.92661996        2.22354306       -4.23724464
 C           -1.94095636        2.47419701       -3.22668477
 C           -2.76354639        1.42473429       -2.83556321
 C           -2.41430323        0.06729868       -3.22694338
 C           -0.57772529        0.84922121       -4.55202292
 C           -1.17797783       -0.18162345       -3.82555181
