   70
C70 / DATE: 7/ 1/2024 / Origin: Program Fullerene / C70 from database
 C            1.39425058        0.22397424        5.10003178
 C            0.63188783       -0.99951662        5.22774154
 C            1.40905611       -2.06834449        4.62560898
 C            2.53560123       -0.05789512        4.24292888
 C            2.52819135       -1.46690425        3.92187912
 C            2.48844250        0.88006824        3.14804119
 C            0.55610903        1.19472658        4.41316212
 C            1.33279836        1.73533291        3.33060761
 C           -0.70497354       -0.74253722        4.71663257
 C           -0.69963713        0.56500328        4.07550962
 C           -1.38163350       -1.77357228        4.09187672
 C            0.73688964       -2.95727343        3.70145290
 C           -0.65006552       -2.98069671        3.70625646
 C            2.44392664       -1.86151392        2.52242571
 C            1.43110199       -2.88917587        2.41668683
 C            2.73727703        0.44206143        1.85153670
 C            2.51655280       -0.89952018        1.51969365
 C            2.50279761        1.36891579        0.85412250
 C            0.68257865        2.12039212        2.17091949
 C            1.49968406        2.31236584        1.07881201
 C           -1.19082571        0.70443651        2.76963286
 C           -0.60535774        1.64224985        1.90399719
 C           -2.26374823       -1.44373161        2.99145865
 C           -2.04716897       -0.27256233        2.25442117
 C           -1.31095795       -3.51887908        2.54067036
 C           -2.46947932       -2.68179956        2.28479812
 C            0.69577171       -3.00093785        1.23438178
 C           -0.56012034       -3.59180538        1.29946173
 C            2.00093305       -1.20559123        0.25017756
 C            1.01386775       -2.19328175        0.12805593
 C            2.70321892        0.96446176       -0.45393452
 C            2.21230056       -0.29718653       -0.79455493
 C            2.67708428        1.97650539       -1.39706806
 C            0.94420849        2.90991330       -0.02999843
 C            1.82106957        3.10210120       -1.08076462
 C           -1.09408131        1.77992537        0.59251618
 C           -0.38783201        2.58628809       -0.31817581
 C           -2.43906129       -0.21977106        0.90614234
 C           -2.03831037        0.86998737        0.10712430
 C           -2.61794106       -2.60328939        0.86161757
 C           -1.50887811       -3.31887856        0.25255597
 C           -2.94439015       -1.38237205        0.29745477
 C            0.21291685       -2.24113068       -1.02704497
 C           -1.06194034       -2.82840640       -0.96265791
 C            1.55217897       -0.47298561       -2.01995233
 C            0.53339614       -1.43137429       -2.13292055
 C            2.42163249        1.64506418       -2.77565141
 C            1.77100558        0.44605455       -3.05824496
 C            1.30667462        3.62844434       -2.31345458
 C            1.95271592        2.88309264       -3.37749683
 C           -0.86167236        2.73941021       -1.63090202
 C           -0.11423927        3.51516202       -2.52980776
 C           -2.42967473        0.93356514       -1.23934693
 C           -1.87677516        1.89253828       -2.09888433
 C           -3.01973558       -1.41574138       -1.07826482
 C           -2.06133007       -2.28045809       -1.74805840
 C           -3.03456987       -0.17940560       -1.80992000
 C           -0.36002128       -1.37214356       -3.21560426
 C           -1.70166923       -1.63565878       -2.97768596
 C           -2.66172725       -0.56011474       -3.15446837
 C            1.06898517        0.32032663       -4.25578902
 C           -0.07453892       -0.56404823       -4.30991126
 C            1.00627333        2.81214297       -4.46384405
 C           -0.26074052        3.33786584       -3.96040366
 C            0.73545069        1.51171101       -5.03198409
 C           -2.12207347        1.76632555       -3.47703151
 C           -2.32570774        0.44160522       -4.03407578
 C           -1.17976377        0.19229068       -4.88335147
 C           -1.30976190        2.47977960       -4.44359768
 C           -0.68642579        1.48441569       -5.30554160
