   70
C70 / DATE: 7/ 1/2024 / Origin: Program Fullerene / C70 from database
 C            1.03537468       -0.11577699        4.70037230
 C            2.32282752       -0.40715754        4.11777024
 C            2.23436828       -1.73433248        3.52546342
 C            0.21249006       -1.30264723        4.52047319
 C            0.83323408       -2.07663384        3.46663616
 C           -1.14172185       -0.84771562        4.32689334
 C            0.27536091        0.99459095        4.16537044
 C           -1.10706466        0.60804142        4.31884588
 C            0.68248816        1.59211983        2.96822213
 C            2.83074103        0.47475895        3.08634727
 C            2.02352678        1.48455430        2.56666718
 C            2.96895633       -1.69395750        2.28528886
 C            3.55944036       -0.37118628        2.16252458
 C            2.40422374       -2.24925735        1.14718649
 C            0.21699383       -2.16046487        2.21428670
 C            1.00482966       -2.35276351        1.06545080
 C           -1.84069186       -1.24850056        3.12278150
 C           -1.14669951       -1.85400888        2.07988459
 C           -2.04484886        1.04158415        3.31467166
 C           -2.71163850       -0.14371228        2.80150129
 C           -0.28263717        2.11752491        2.08623018
 C           -1.65204028        2.00066054        2.39047057
 C            0.10933014        2.57382650        0.81961473
 C            2.43532285        2.07919321        1.38137727
 C            1.45181615        2.68597467        0.50824197
 C            3.82363793        0.09788128        0.87882647
 C            3.41327182        1.39379960        0.54503050
 C            3.13395648       -2.06926686       -0.01621336
 C            3.93798400       -0.86070277       -0.12605920
 C            2.50915373       -2.30163649       -1.29675066
 C            0.37784201       -2.45259290       -0.18500215
 C            1.12955098       -2.40729471       -1.36595712
 C           -1.70986185       -1.80475410        0.80739182
 C           -1.01300275       -2.37066266       -0.25360671
 C           -3.23674790       -0.05541512        1.52122246
 C           -2.82899452       -0.99071362        0.55916275
 C           -2.59150805        2.28076605        1.40308446
 C           -3.54447866        1.22820710        1.09382531
 C           -0.82070561        2.66781474       -0.20947754
 C           -2.15304441        2.81526840        0.13279300
 C           -0.45043267        2.32289150       -1.51979662
 C            1.86779110        2.47384957       -0.86742886
 C            3.12897419        1.75105717       -0.84087663
 C            0.90773038        2.16148016       -1.83158861
 C            3.93360683       -0.45396591       -1.51547300
 C            3.17372194       -1.44842997       -2.25527364
 C            3.41377459        0.85433468       -1.85817419
 C            1.28712633        1.43891534       -2.96954574
 C            2.34702953       -0.74887030       -3.21032561
 C            2.45468954        0.67594163       -2.93312273
 C            0.49295531       -2.14144473       -2.58173605
 C            1.08113598       -1.24472452       -3.49322031
 C           -1.65115011       -2.52061257       -1.47735178
 C           -0.85733062       -2.46464381       -2.69103272
 C           -3.33047863       -0.89259460       -0.74709926
 C           -2.88441179       -1.79166847       -1.71268916
 C           -3.98841846        1.42312200       -0.26349060
 C           -3.17731306        2.48918298       -0.83418953
 C           -3.92180764        0.29955033       -1.17283460
 C           -1.42599637        2.09386962       -2.50232100
 C           -2.77192503        2.05608050       -2.15146682
 C           -3.54328337        0.86082405       -2.45600937
 C            0.30596477        1.02569838       -3.86471558
 C            0.26297376       -0.38456331       -4.21327752
 C           -1.06051455        1.46575769       -3.68546467
 C           -1.66989668       -1.85309460       -3.72692790
 C           -2.90559725       -1.39642688       -3.11383520
 C           -3.08160773        0.00806188       -3.44550350
 C           -1.11095956       -0.74993189       -4.47354289
 C           -1.92738588        0.42494162       -4.22252869
