   70
C70 / DATE: 7/ 1/2024 / Origin: Program Fullerene / C70 from database
 C            1.42356282        0.09119900        5.07097479
 C            0.62403513       -1.05838001        4.68384087
 C            1.49815731       -1.96009425        3.97740710
 C            2.63661040        0.06808818        4.26956837
 C            2.73893709       -1.24769656        3.68973415
 C            2.60121461        1.21446980        3.38131524
 C            0.68462833        1.28167203        4.70163669
 C            1.54190050        2.08916215        3.85585347
 C           -0.56299181       -0.57401779        4.00157586
 C           -0.60036587        0.86787142        4.16605656
 C           -0.93667384       -1.11633110        2.76774852
 C            1.03651632       -2.51973644        2.72591163
 C           -0.22866057       -2.19827291        2.22431807
 C            2.97308555       -1.36126153        2.26341289
 C            2.15572144       -2.45875991        1.80988248
 C            2.77181352        1.04624828        2.00368302
 C            3.03017472       -0.22661062        1.46000843
 C            2.40832239        2.10008167        1.15931036
 C            0.92379314        2.92418305        2.94000234
 C            1.48767686        3.04506546        1.60648613
 C           -1.15450239        1.62491871        3.14424632
 C           -0.51407176        2.80654979        2.76414956
 C           -1.77958785       -0.36742603        1.94225177
 C           -1.98095314        0.99051956        2.22074150
 C           -2.21521867       -0.90787115        0.72747916
 C           -0.48351622       -2.57671803        0.90302704
 C           -1.59595406       -2.06077417        0.23260516
 C            1.84917260       -2.53372416        0.46647295
 C            0.59926494       -3.03369316        0.15183325
 C            2.93597789       -0.41467228        0.07765749
 C            2.41623306       -1.61730973       -0.42324078
 C            2.61413111        1.98134695       -0.20887398
 C            3.00450564        0.69451092       -0.74629185
 C            1.63736336        2.55985381       -1.12082913
 C            0.41135671        3.45970244        0.71612359
 C           -0.82824286        3.39973476        1.47534148
 C            0.43713944        3.03889642       -0.61441293
 C           -2.63972875        1.78663030        1.29533674
 C           -1.98052015        2.99544336        0.82904356
 C           -3.12039096       -0.19350119       -0.06553146
 C           -3.27388900        1.17237721        0.14858177
 C           -3.50790675       -0.70084815       -1.30114697
 C           -1.86367218       -2.50330822       -1.06860429
 C           -2.86079826       -1.88910349       -1.81969740
 C            0.39962013       -3.41145940       -1.15805380
 C           -0.93112746       -3.31234091       -1.71218223
 C            2.06871379       -1.73810809       -1.77989641
 C            1.30875296       -2.85804898       -2.14164201
 C            2.49810579        0.61183102       -2.09949444
 C            1.63680228        1.76282780       -2.32696788
 C            2.11233900       -0.61419463       -2.62353318
 C            0.45644446        1.58079507       -3.03711299
 C           -0.75974852        2.75229516       -1.28347861
 C           -1.97178944        2.92678818       -0.61633884
 C           -3.09606837        2.08794201       -0.96906749
 C           -0.74819906        2.05622848       -2.50255497
 C           -3.67163517        0.23022344       -2.40651790
 C           -3.15354845        1.57477729       -2.24983021
 C           -1.96367883        1.67448414       -3.08124923
 C           -2.68884527       -1.71445686       -3.25992937
 C           -3.04643920       -0.34541442       -3.57991931
 C           -2.00540871        0.56840726       -4.02290141
 C           -0.77093343       -3.21987481       -3.15318833
 C            0.62945656       -2.91767975       -3.42005501
 C           -1.58388440       -2.27268139       -3.88800257
 C            1.34144850       -0.57217119       -3.78641889
 C            0.44202662        0.55440262       -3.98008282
 C           -0.81482101        0.04182928       -4.49734541
 C            0.68158184       -1.76222509       -4.27881991
 C           -0.68281442       -1.40259068       -4.63040624
