   70
C70 / DATE: 7/ 1/2024 / Origin: Program Fullerene / C70 from database
 C            1.52558806       -0.14906007        4.26005182
 C            2.68464405       -0.34440960        3.40364730
 C            2.49957283       -1.60016167        2.69529056
 C            0.65043061       -1.29567455        4.09432596
 C            1.33781530       -2.26350127        3.26364905
 C           -0.64818782       -0.81204720        3.66035769
 C            0.72255183        1.05226822        4.10059405
 C           -0.60595634        0.64028673        3.68083672
 C            1.29908238        2.16951053        3.51562413
 C            3.20472702        0.74683037        2.72364312
 C            2.64885795        2.06403908        2.98471485
 C            3.43596571        0.64297885        1.29243760
 C            2.70504475       -1.66293230        1.31722737
 C            3.07745030       -0.51218029        0.61442437
 C            2.19197962       -2.75288627        0.60953660
 C            0.57401923       -3.06644961        2.43314833
 C            1.13502806       -3.48034811        1.16059491
 C           -1.29149907       -1.45743218        2.60317640
 C           -0.81559807       -2.70080323        2.18142668
 C           -2.12662525       -0.71765286        1.75808284
 C           -1.26435175        1.33106819        2.67317191
 C           -2.25000697        0.66243451        1.96016132
 C            0.52001155        2.96372704        2.57973858
 C           -0.73244371        2.51812919        2.15556746
 C            2.70152191        2.82199950        1.74821608
 C            3.12019544        1.92391696        0.68519852
 C            1.43981017        3.52071365        1.60133342
 C            2.43115168        1.95420983       -0.52854310
 C            2.79166798       -0.41802572       -0.74237976
 C            2.25478897        0.76721276       -1.25085628
 C            2.40846728       -2.81824577       -0.76439187
 C            2.70551703       -1.58725111       -1.47511478
 C            1.49518499       -3.59278100       -1.58557247
 C            0.01089593       -3.86386401        0.32218482
 C           -1.15793412       -3.18607971        0.85375452
 C            0.18774352       -3.92152883       -1.04973039
 C           -2.59833211       -1.29778285        0.57371362
 C           -1.92185572       -2.37972036        0.02034906
 C           -3.52532938       -0.62374771       -0.20785938
 C           -3.07790164        1.41307946        1.14166952
 C           -3.86220475        0.74330750        0.12707171
 C           -1.29112111        3.07240584        0.99763289
 C           -2.53938915        2.63080357        0.56720318
 C            0.97252657        3.74576859        0.31767216
 C            1.60570905        3.04215453       -0.78939697
 C           -0.45870097        3.70367122        0.07767668
 C            0.63213537        2.95556149       -1.85446127
 C           -0.64039158        3.44260280       -1.33978404
 C            1.40558172        0.73301565       -2.37214260
 C            0.62706694        1.85622405       -2.69805287
 C            1.97174559       -1.59136575       -2.72341365
 C            1.29822365       -2.87511655       -2.83135862
 C            1.28737228       -0.44816705       -3.12507634
 C           -0.80545986       -3.30647264       -1.91590507
 C           -1.79625219       -2.48693014       -1.36994489
 C           -0.12208182       -2.88248233       -3.12667023
 C           -3.41155363       -0.71474859       -1.65143769
 C           -2.46851341       -1.58386520       -2.20161535
 C           -3.78784827        1.53575000       -1.08755626
 C           -2.83984681        2.61255408       -0.85858191
 C           -1.81861884        2.84480008       -1.78131682
 C           -3.56335110        0.63097805       -2.19496731
 C           -0.49421524        1.70913706       -3.50426888
 C           -1.78504400        2.12727721       -2.98027110
 C           -2.72883278        1.04227609       -3.22107425
 C            0.19885465       -0.62304456       -3.97931829
 C           -0.63737959       -1.80333852       -3.82288206
 C           -1.95846367       -1.31785759       -3.47256361
 C           -0.68666082        0.48717120       -4.24525573
 C           -2.04697841        0.03009132       -4.00334201
