   70
C70 / DATE: 7/ 1/2024 / Origin: Program Fullerene / C70 from database
 C            1.66262018        0.02837009        4.41860894
 C            0.84049462       -1.16443257        4.36971127
 C            1.36297513       -2.03063175        3.32695202
 C            2.62486536       -0.05250097        3.33264755
 C            2.43209792       -1.31302770        2.65405060
 C            2.51384222        1.15860372        2.55136070
 C            0.79804884        1.16389423        4.15290307
 C            1.39752957        1.92029445        3.08072777
 C           -0.54528344       -0.74546379        4.28179735
 C           -0.55030772        0.67405451        3.96106276
 C           -1.42564952       -1.57798965        3.61249167
 C            0.46099539       -2.75503385        2.55105479
 C           -0.89205789       -2.72645345        2.89658115
 C            0.81988965       -3.09980563        1.24513660
 C            2.45988526       -1.33579200        1.26748364
 C            1.87012109       -2.41616900        0.62239917
 C            2.63996495        1.08638486        1.16450738
 C            2.73051363       -0.16380130        0.54237821
 C            2.16019143        2.16224755        0.42014891
 C            0.57459236        2.53661246        2.15620373
 C            1.18489616        2.98293446        0.99949111
 C           -1.27681801        1.12481246        2.85759257
 C           -0.78395784        2.19328909        2.08767239
 C           -2.43939779       -0.98796655        2.75772562
 C           -2.33560524        0.34715647        2.37965484
 C           -1.89041055       -3.11190723        1.91467390
 C           -2.80120039       -1.98234422        1.75692256
 C           -0.06552124       -3.86212336        0.48256970
 C           -1.48447037       -3.81830616        0.79490490
 C            0.06966939       -3.90885939       -0.96394478
 C            2.12088053       -2.59236709       -0.72944525
 C            1.14789147       -3.27804881       -1.56213971
 C            2.76330753       -0.22300248       -0.85629820
 C            2.63704120       -1.46434615       -1.48654006
 C            2.33466212        2.15900990       -0.96409139
 C            2.62328722        0.94942388       -1.61233813
 C            1.94300358        3.28561112       -1.69122982
 C            0.45194113        3.84235627        0.20747121
 C            0.92813329        4.14609998       -1.12445150
 C           -1.55360759        2.70216111        1.02779114
 C           -0.97834459        3.61935784        0.14261540
 C           -3.04943795        0.76737249        1.26776688
 C           -2.65499347        1.97876590        0.57913272
 C           -3.18934791       -1.56173942        0.48225928
 C           -3.44508234       -0.21075706        0.26437577
 C           -2.20238688       -3.61170488       -0.44615038
 C           -1.24931688       -3.71120396       -1.53650989
 C           -2.95480819       -2.38259205       -0.61947128
 C           -1.46315951       -2.58169937       -2.42514253
 C           -2.54384853       -1.78178065       -1.88201700
 C            0.91518925       -2.43378088       -2.72112921
 C            2.05800336       -1.54208847       -2.81814499
 C           -0.36434846       -1.93019668       -2.96393278
 C            2.48336268        0.83959631       -2.99934355
 C            1.91870291       -0.37515916       -3.54537789
 C            1.62512621        3.17030901       -3.09875839
 C            1.87385248        1.91276749       -3.75820543
 C           -0.21905092        4.10605753       -2.01662601
 C           -1.31528460        3.52543182       -1.26839714
 C            0.20490476        3.45564909       -3.23655395
 C           -2.81927383        1.75215661       -0.85054470
 C           -3.17020416        0.36125555       -1.04436181
 C           -2.48409705       -0.39446931       -1.98580825
 C           -1.93431974        2.36533778       -1.72385801
 C           -0.49892636       -0.60270371       -3.36008149
 C            0.58766361       -0.01672978       -3.99874067
 C            0.59237245        1.40977037       -4.23558039
 C           -0.43830822        2.21285380       -3.61715918
 C           -1.46419195        0.20421300       -2.73529780
 C           -1.32949977        1.60276729       -2.73315570
