   70
C70 / DATE: 7/ 1/2024 / Origin: Program Fullerene / C70 from database
 C            1.61071834        0.04802260        4.95107897
 C            0.79166236       -1.15272238        4.93377330
 C            1.50837369       -2.16094098        4.17810715
 C            2.69283536       -0.14011688        4.00091211
 C            2.69873883       -1.53387459        3.62152714
 C            2.55489226        0.86071641        2.95406040
 C            0.79463921        1.14452190        4.46840278
 C            1.46051189        1.73757070        3.32012095
 C           -0.54639857       -0.77863159        4.50882091
 C           -0.56112319        0.65738225        4.28349248
 C           -1.23840676       -1.60163124        3.62951961
 C            0.82320530       -2.85028625        3.09547094
 C           -0.53959348       -2.66600265        2.91555181
 C            2.73637465       -1.85096506        2.21196905
 C            1.69284523       -2.81509170        1.93489070
 C            2.67949023        0.49092875        1.61620964
 C            2.93577241       -0.84291925        1.27609418
 C            2.15395430        1.34440116        0.63676753
 C            0.65598798        2.24141642        2.30562315
 C            1.12128905        2.22280816        0.98583534
 C           -1.28010939        1.17346067        3.21009255
 C           -0.71875149        2.24561303        2.51926919
 C           -2.18444848       -1.00345836        2.70426175
 C           -2.22899497        0.37920966        2.55378999
 C           -1.08412928       -2.72700809        1.57008823
 C           -2.21873042       -1.82771741        1.51281357
 C            1.15185287       -2.80659472        0.65178550
 C           -0.23327071       -2.79667137        0.46979142
 C            2.78002601       -1.19725434       -0.05359326
 C            1.93853279       -2.26991091       -0.36258660
 C            2.38799905        1.04734225       -0.70971952
 C            2.93580670       -0.20408125       -1.00458616
 C            1.68605446        1.75124765       -1.69774924
 C            0.30893520        2.77613369       -0.00936227
 C            0.51487727        2.42431894       -1.34814376
 C           -1.51172616        2.91471425        1.60849740
 C           -0.89071784        3.36803384        0.38064584
 C           -2.85600153        0.90244415        1.41987139
 C           -2.74864096        2.27719230        1.21950158
 C           -2.51945590       -1.21723001        0.30586378
 C           -3.08393185        0.05570645        0.32204821
 C           -0.73064549       -2.42853296       -0.78249467
 C           -1.91762479       -1.68378740       -0.86581665
 C            1.50038808       -2.39604568       -1.67654698
 C            0.11937223       -2.49593709       -1.88651217
 C            3.02633576       -0.62162630       -2.32193242
 C            2.31706700       -1.83999958       -2.66009520
 C            1.91569582        1.46067531       -3.04339431
 C            2.76678670        0.33715678       -3.36752756
 C            0.77991730        1.42452098       -3.95008242
 C           -0.52880377        2.50759696       -2.28453244
 C           -0.47596341        1.71162406       -3.42792578
 C           -1.95783957        3.53251349       -0.58267597
 C           -3.13705198        2.86485771       -0.04483655
 C           -1.75660965        3.04685392       -1.92715755
 C           -3.58453702        0.56325833       -0.87248135
 C           -3.65930574        1.99745036       -1.07392125
 C           -2.93941681        2.30320984       -2.29601761
 C           -2.35195759       -1.18343208       -2.10120275
 C           -1.57358474        0.88850989       -3.73756930
 C           -3.13939202       -0.02835197       -2.12362116
 C           -2.74310397        1.05928553       -3.00917763
 C           -0.42511407       -2.28690024       -3.14923902
 C           -1.63087452       -1.49022255       -3.25589096
 C           -1.33755886       -0.40649768       -4.17831030
 C            1.83852664       -1.71761484       -4.01968029
 C            2.17978832       -0.38219076       -4.48520680
 C            0.94313899        0.28678901       -4.83806120
 C            0.43174118       -1.93026200       -4.26804485
 C           -0.10031850       -0.71297722       -4.86085258
