   70
C70 / DATE: 7/ 1/2024 / Origin: Program Fullerene / C70 from database
 C            1.21511131        0.27843840        4.71309541
 C            2.47507803        0.04420292        4.04006492
 C            2.50889596       -1.35655691        3.66113092
 C            0.39447096       -0.91318267        4.54001295
 C            1.15010945       -1.86164320        3.74906422
 C           -0.90283012       -0.49067562        4.05858491
 C            0.42180949        1.41973743        4.30857989
 C           -0.94059266        0.95632189        4.10928710
 C            0.80026854        2.15954991        3.11644825
 C            2.79782708        0.81508984        2.85099298
 C            1.89433324        1.75638772        2.35062806
 C            3.19698705       -1.44946161        2.38670760
 C            3.45195499       -0.09272756        1.92371184
 C            2.74757439       -2.38519631        1.46835207
 C            0.56982908       -2.42078316        2.61228267
 C            1.40831868       -2.93413461        1.62525580
 C           -1.44982863       -1.10636979        2.94231389
 C           -0.76639927       -2.14515174        2.29689154
 C           -2.42895721       -0.41457814        2.23563723
 C           -1.48386642        1.66328967        2.95977660
 C           -0.43051418        2.51762373        2.44039610
 C           -2.26905206        0.95940438        2.04546497
 C           -0.40127776        2.73996120        1.07539257
 C            1.90908413        2.04516694        0.98379729
 C            0.81777556        2.69960862        0.39851862
 C            3.37577920        0.18441129        0.56342492
 C            2.85326456        1.41798995        0.17218394
 C            2.94624516       -2.12313181        0.05572402
 C            3.39639883       -0.87377892       -0.35267321
 C            0.87734466       -3.19510059        0.29953811
 C            1.85053904       -2.73740154       -0.67575654
 C           -1.31415953       -2.66398984        1.11980152
 C           -0.46503426       -2.97266303        0.05302028
 C           -3.19336889       -1.13063985        1.33099888
 C           -2.65361021       -2.39004517        0.85288767
 C           -3.73338902       -0.43758788        0.17952479
 C           -2.41982843        1.48768477        0.75739518
 C           -1.56733814        2.51841430        0.35645633
 C           -3.16124430        0.77714063       -0.19533033
 C           -1.62262585        2.99545243       -0.93988578
 C            0.83226555        2.99862257       -0.96843946
 C           -0.36996987        3.32680092       -1.59850419
 C            2.97564241        1.80921732       -1.15245345
 C            1.93206835        2.62767945       -1.74448996
 C            3.31327779       -0.58428541       -1.70900578
 C            3.35394675        0.80322995       -2.12270526
 C            1.41388039       -2.13443479       -1.85548097
 C            2.28254034       -1.25175123       -2.49464454
 C           -0.86063939       -2.68995818       -1.25226046
 C            0.04156124       -2.07491562       -2.13158563
 C           -3.16561238       -2.59932889       -0.48976842
 C           -3.99718413       -1.45322535       -0.81929661
 C           -2.21051627       -2.76135061       -1.56560655
 C           -3.76387164       -1.13309918       -2.20770745
 C           -2.71332760       -2.01621680       -2.69761600
 C           -3.12978848        1.15848269       -1.54551373
 C           -2.48243356        2.33689926       -1.90313462
 C           -3.37044323        0.21741287       -2.55075420
 C           -0.53092816        3.04583463       -3.01215519
 C           -1.82438430        2.40942124       -3.19821847
 C            1.73766193        2.17444910       -3.11897111
 C            2.49194002        0.94764408       -3.27942561
 C            1.75917869       -0.29445924       -3.45041721
 C            0.46746793        2.23017346       -3.67124447
 C           -0.42749933       -1.24787631       -3.16512432
 C           -1.78687298       -1.20400033       -3.46120964
 C           -2.41689132        0.09078418       -3.63825788
 C           -1.61623710        1.17977724       -3.94224920
 C            0.38939238       -0.23490896       -3.66827434
 C           -0.17930648        0.98230588       -4.05518352
