   70
C70 / DATE: 7/ 1/2024 / Origin: Program Fullerene / C70 from database
 C            1.37101399        0.03767921        5.16060207
 C            0.64353791       -1.20285246        4.95587860
 C            1.58199775       -2.17220487        4.44041117
 C            2.63430801       -0.07965149        4.45405837
 C            2.85061278       -1.48893812        4.21335245
 C            2.59689868        0.83493741        3.32008609
 C            0.61207279        1.09520708        4.52257191
 C            1.45084761        1.70469816        3.50774619
 C           -0.53872195       -0.89680517        4.17171118
 C           -0.65998478        0.54474528        4.08923600
 C           -0.83919963       -1.63753387        3.03408448
 C            1.24723008       -2.87919860        3.22029281
 C            0.05903775       -2.60217642        2.54642487
 C            3.33249260       -1.89186785        2.91009894
 C            2.45875368       -2.95179658        2.43712982
 C            2.88994223        0.37829631        2.03138230
 C            3.40688582       -0.90445993        1.84506349
 C            2.35328583        1.05875834        0.93068007
 C            0.81188803        2.19367925        2.38055643
 C            1.46274028        2.11236203        1.15153850
 C           -1.22325476        1.08825713        2.93892922
 C           -0.57871666        2.18571534        2.37690048
 C           -1.80263113       -1.12241947        2.16705712
 C           -1.97618837        0.26577143        2.09159210
 C           -2.22454067       -1.92612435        1.11978977
 C           -0.04649626       -3.00190571        1.21123671
 C           -1.29562758       -2.91435815        0.60803234
 C            2.33893109       -2.79875795        1.00098470
 C            3.08432093       -1.61127866        0.62400942
 C            1.09677034       -2.98609570        0.40174842
 C            2.43155008        0.48404551       -0.34392396
 C            2.61408495       -0.89167991       -0.46164809
 C            1.88990693        1.16437839       -1.43805830
 C            0.86192281        2.73862754        0.06088010
 C            1.25383407        2.39159898       -1.23047812
 C           -1.21267387        2.84701166        1.34413112
 C           -0.39006263        3.32393908        0.25199293
 C           -2.56078611        0.84586571        0.95457653
 C           -2.36345635        2.21011003        0.73695545
 C           -2.91644142       -1.33517653       -0.00666755
 C           -3.05810122        0.04241307       -0.07958333
 C           -1.39266016       -2.90335177       -0.84131782
 C           -2.53152638       -2.07315649       -1.19946993
 C            0.96917911       -2.56924256       -0.92233620
 C            1.83107008       -1.56820685       -1.38481241
 C           -0.23006115       -2.80698021       -1.59331919
 C            1.66474117        0.45884944       -2.62862744
 C            1.55250413       -0.93444589       -2.58539788
 C            1.30995462        1.15584097       -3.78173068
 C            0.64311468        3.04037142       -2.30342060
 C            0.77910034        2.49378250       -3.64010219
 C           -1.27529608        3.51606220       -0.88145881
 C           -2.49307263        2.76571764       -0.59945095
 C           -0.73033753        3.48922200       -2.15531489
 C           -3.37443089        0.60083878       -1.31773162
 C           -3.07280404        1.99486503       -1.59322199
 C           -2.52876594       -1.42731583       -2.43287923
 C           -3.11489083       -0.16352055       -2.53021430
 C           -0.33919298       -2.41558843       -2.92292249
 C            0.71625518       -1.59594818       -3.47560289
 C           -1.59174578       -1.83406392       -3.38057318
 C            0.51937358        0.49628188       -4.80519525
 C            0.16713997       -0.89370776       -4.61700925
 C           -1.28268516       -0.98096190       -4.51720150
 C           -0.53788911        2.51142416       -4.26320164
 C           -1.49336358        2.90918402       -3.24600581
 C           -2.58526942        2.09291310       -2.96085904
 C           -2.70110940        0.77313822       -3.56852703
 C           -0.71761566        1.24602808       -4.94918368
 C           -1.80769979        0.36915575       -4.55427491
