   70
C70 / DATE: 7/ 1/2024 / Origin: Program Fullerene / C70 from database
 C            1.24292172        0.02444099        4.39174393
 C            2.51331664       -0.20075989        3.73798893
 C            2.58380574       -1.61541957        3.44544141
 C            0.41530782       -1.15677713        4.17855087
 C            1.22941288       -2.13807288        3.50657378
 C           -0.80694623       -0.72142946        3.53777462
 C            0.46172804        1.15980557        3.96412052
 C           -0.90322468        0.69994514        3.79049250
 C            0.97482671        2.01007442        2.98951923
 C            2.78849711        0.51262281        2.50098320
 C            1.88850695        1.48452963        2.06781942
 C            3.30153941       -1.76468120        2.19496428
 C            3.30755257       -0.45591418        1.55132098
 C            2.97931028       -2.86448447        1.41667649
 C            0.73975145       -2.77974593        2.37616201
 C            1.68216544       -3.48694023        1.63997456
 C           -1.11341861       -1.18983687        2.26480296
 C           -0.39472510       -2.26288066        1.71605944
 C           -1.91589605       -0.39434881        1.44173106
 C           -1.71177334        1.47118871        2.97210289
 C           -2.38094341        0.84153634        1.91554895
 C            0.11741764        3.01215900        2.56644211
 C           -1.29737169        2.78776143        2.79602878
 C            0.22070587        3.49099262        1.20499985
 C            1.65179209        1.64141786        0.69395002
 C            0.80221544        2.66036842        0.25330203
 C            2.94166851       -0.36395965        0.21120922
 C            2.15967008        0.71519462       -0.22372505
 C            3.12265306       -2.75379120       -0.01854078
 C            3.08886397       -1.49021737       -0.60412158
 C            1.28209803       -4.11791870        0.40684613
 C            2.30127219       -3.80768154       -0.58326506
 C           -0.72458407       -2.71370399        0.42980053
 C            0.01048406       -3.74344923       -0.16211092
 C           -2.14646644       -0.77814859        0.11602632
 C           -1.61630623       -1.97992548       -0.35820643
 C           -2.87523236        0.04964618       -0.74936114
 C           -3.23614637        1.60193959        1.12018405
 C           -3.46732780        1.21042128       -0.25917955
 C           -2.01803193        3.63730831        1.87892498
 C           -1.04446794        4.12908067        0.91144139
 C           -3.11667595        3.05109545        1.14315277
 C           -3.43940751        2.41596309       -1.07958507
 C           -1.61329075        3.95158322       -0.40088438
 C           -2.98165160        3.49493743       -0.22672031
 C            0.31399430        2.64485425       -1.06218002
 C           -0.86030209        3.34936905       -1.40072609
 C            1.85601579        0.84800560       -1.58033218
 C            0.91882559        1.79642038       -2.00073742
 C            2.78261920       -1.39331509       -1.95546247
 C            2.27552682       -0.13825279       -2.47195998
 C            1.62349339       -3.55434857       -1.83916620
 C            0.19927436       -3.74430173       -1.60048724
 C            2.03940241       -2.47071097       -2.60160603
 C           -1.75892177       -2.30207623       -1.70711715
 C           -0.71388288       -3.05349222       -2.37821050
 C           -2.75051029       -0.10814033       -2.13300524
 C           -2.21516449       -1.28735571       -2.63514591
 C           -2.86549540        2.32684591       -2.33728867
 C           -1.57202072        2.96667706       -2.53087834
 C           -2.75577284        1.02070402       -2.94929120
 C            0.41778086        1.72038043       -3.30236419
 C           -0.88902270        2.26113284       -3.58658750
 C           -1.73778453        1.14581535       -3.97512792
 C            1.45629006       -0.45382582       -3.62797747
 C            1.10345873       -1.86154224       -3.52852166
 C           -0.23728987       -2.23041337       -3.47888754
 C           -1.25626681       -1.22901029       -3.73413746
 C            0.49549678        0.46210896       -4.02019570
 C           -0.87333955        0.01054576       -4.22956584
