   70
C70 / DATE: 7/ 1/2024 / Origin: Program Fullerene / C70 from database
 C            1.08411792       -0.12353727        4.98115861
 C            2.34851138       -0.31394718        4.29990261
 C            2.27451713       -1.59302688        3.61125569
 C            0.25208798       -1.27948708        4.67704654
 C            0.88875836       -1.99591727        3.58969674
 C           -1.09726478       -0.80811691        4.49359453
 C            0.29807346        1.06415911        4.70007121
 C           -1.08530591        0.64339251        4.62153655
 C            0.76935069        2.01338255        3.79800294
 C            2.79509004        0.67641001        3.33398701
 C            2.04351690        1.82116286        3.11393137
 C            2.93886523       -1.44035287        2.34302800
 C            3.32325991       -0.04626962        2.19401287
 C            2.40498078       -2.06499023        1.22740118
 C            0.25019190       -2.10942742        2.34968214
 C            1.02456255       -2.32967728        1.19887043
 C           -1.77626727       -1.12038886        3.25369170
 C           -1.10385566       -1.76935377        2.21685077
 C           -1.92882744        1.17476385        3.56600570
 C           -2.57601465        0.03970144        2.92780089
 C           -0.14816483        2.64420310        2.85832040
 C           -1.47708830        2.22313888        2.76504835
 C            1.90788082        2.32853370        1.75762297
 C            0.59751097        2.93939845        1.64177756
 C            3.25295805        0.50309754        0.91339748
 C            2.41209542        1.60087445        0.68218149
 C            3.03642950       -1.75288181        0.03661754
 C            3.48570639       -0.38138887       -0.13436907
 C            2.44662930       -2.18180693       -1.20559317
 C            0.38468949       -2.51687164       -0.03566029
 C            1.15722652       -2.68517940       -1.19148571
 C           -1.66780759       -1.70071409        0.94315169
 C           -0.98194161       -2.23580325       -0.14840858
 C           -3.00781454        0.18203238        1.62045334
 C           -2.76996913       -0.86423350        0.73185694
 C           -2.17369624        2.47703641        1.58649669
 C           -3.10677440        1.47171174        1.11022800
 C           -0.06208639        2.90435537        0.42069194
 C           -1.44988372        2.95893124        0.42122016
 C            1.84802654        1.79213411       -0.58605024
 C            0.59419949        2.40973923       -0.70670863
 C            3.16600064        0.01274711       -1.48947031
 C            2.79730310       -1.19446257       -2.21114949
 C            2.42284003        1.16324617       -1.69545501
 C            1.98592503       -1.07977112       -3.33392173
 C            0.53155965       -2.83961094       -2.42027414
 C            1.05190783       -2.09504743       -3.55882782
 C           -1.62099449       -2.32380621       -1.38909810
 C           -0.91213888       -2.78509160       -2.49147575
 C           -3.32083204       -0.77493040       -0.53845534
 C           -2.80069973       -1.61575472       -1.59950627
 C           -3.25503619        1.65408883       -0.32263473
 C           -2.18301907        2.53323151       -0.76124110
 C           -3.55846187        0.54708437       -1.09922606
 C           -0.09084544        2.35596937       -1.92011624
 C           -1.48083333        2.21305616       -1.91922058
 C            1.86604204        1.34754542       -2.95650119
 C            1.77151876        0.20115620       -3.84967774
 C            0.62541049        2.08543195       -3.07590789
 C            0.67903197        0.46003416       -4.77213301
 C           -0.07821743        1.58345377       -4.24207464
 C           -0.04094088       -1.90869208       -4.49680217
 C           -1.26647817       -2.30758881       -3.82179371
 C           -0.25502639       -0.60255157       -5.08418192
 C           -2.98773426       -0.88354416       -2.84261987
 C           -3.09465111        0.51566480       -2.47273959
 C           -2.09730149        1.39991638       -2.87682294
 C           -1.45468622        1.15952984       -4.08684096
 C           -2.22244634       -1.22228928       -3.94858492
 C           -1.58367047       -0.15380196       -4.70156307
