   70
C70 / DATE: 7/ 1/2024 / Origin: Program Fullerene / C70 from database
 C            1.27681670       -0.07269352        4.32939430
 C            2.55922971       -0.44545672        3.78069075
 C            2.54088382       -1.87635460        3.52967116
 C            0.42544226       -1.25262471        4.32937550
 C            1.20383153       -2.36866207        3.82906250
 C           -0.81391389       -0.90122264        3.65737712
 C            0.53928298        0.99684184        3.68774092
 C           -0.81865761        0.54153383        3.48828948
 C            1.12351220        1.74326486        2.67211580
 C            3.00633070        0.21145238        2.56885322
 C            2.32937001        1.32611324        2.08413150
 C            3.10655778       -2.10548182        2.20752184
 C            3.39255910       -0.80967564        1.61521070
 C            2.57603505       -3.10940794        1.41316078
 C            0.60482442       -3.26098607        2.95045780
 C            1.40855383       -3.83491245        1.88586276
 C           -1.28796168       -1.70217233        2.61882065
 C           -0.70708645       -2.94926950        2.39227867
 C           -2.08024327       -1.11747511        1.62619924
 C           -1.53687585        1.07491290        2.42815938
 C           -2.40274491        0.23480404        1.74146202
 C            0.28833163        2.58322790        1.93835773
 C           -1.06071584        2.22152917        1.78257353
 C            0.89231296        3.42542893        1.01596329
 C            2.60409209        1.72385416        0.77594398
 C            2.08064305        2.93955701        0.34652559
 C            3.12682954       -0.57641643        0.26745291
 C            2.97903195        0.74717015       -0.15604729
 C            2.40329825       -2.87223725       -0.01008251
 C            2.66170426       -1.61462482       -0.55180415
 C            0.53802197       -4.06809455        0.74972734
 C           -0.77226035       -3.52991139        1.06350894
 C            1.20731447       -3.57369817       -0.43872759
 C           -2.26678701       -1.77077736        0.40064243
 C           -1.44484577       -2.84467683        0.06213861
 C           -3.02265220       -1.15716890       -0.60451732
 C           -3.28264100        0.80326397        0.83833076
 C           -3.68110718        0.03740440       -0.32630936
 C           -1.84923340        2.79615987        0.77379694
 C           -3.04388291        2.17220795        0.41430792
 C            0.08130185        4.12455549        0.04711960
 C           -1.30504630        3.74052168       -0.09628986
 C            1.93926058        3.21820621       -1.07188461
 C            0.71767338        3.98150334       -1.25363303
 C            2.86553390        0.99775058       -1.51919763
 C            2.25145649        2.22783745       -1.98750162
 C            2.11618897       -1.30860261       -1.80207017
 C            2.41779848       -0.07893880       -2.38083400
 C            0.43066715       -2.98594342       -1.42709117
 C           -0.95133372       -2.92440834       -1.23631667
 C            1.03192637       -2.05690328       -2.27469373
 C           -2.83659759       -1.54395449       -1.93577550
 C           -1.74584814       -2.44554719       -2.26689375
 C           -2.93842414       -0.55754506       -3.00607468
 C           -3.93420204        0.97858228       -1.40280347
 C           -3.52265786        2.29707119       -0.95149154
 C           -3.32344301        0.73687057       -2.69389354
 C           -1.57239118        3.63784586       -1.52378812
 C           -0.28808207        3.49337596       -2.18202030
 C           -2.63412564        2.85856308       -1.95202872
 C           -2.39413528        1.83027860       -2.95226055
 C            1.28353028        1.87397506       -3.01512269
 C            1.53398515        0.49242460       -3.38432643
 C           -0.02731756        2.34783405       -2.93093918
 C           -1.08909098        1.54851592       -3.36841593
 C            0.31978176       -1.62707046       -3.39123402
 C           -1.09577765       -1.93965454       -3.46181502
 C           -1.79961373       -0.74169532       -3.88426871
 C            0.49214829       -0.26993643       -3.87890842
 C           -0.82636668        0.32976219       -3.99316438
