   70
C70 / DATE: 7/ 1/2024 / Origin: Program Fullerene / C70 from database
 C            1.62753212       -0.02641097        4.59194997
 C            0.81491235       -1.22466869        4.49782541
 C            1.26660971       -1.99171829        3.34910970
 C            2.59733323       -0.07020367        3.51585826
 C            2.44052716       -1.32832696        2.81017425
 C            2.46751890        1.15115132        2.74502926
 C            0.75837702        1.11235215        4.35127152
 C            1.25846717        1.82080136        3.19080135
 C           -0.57196162       -0.81436060        4.54352604
 C           -0.60521980        0.62829202        4.32140497
 C           -1.50095071       -1.60346551        3.88316048
 C            0.31886639       -2.50802901        2.46672780
 C           -1.03296799       -2.50290712        2.83334196
 C            0.66174037       -2.68422024        1.12082261
 C            2.62219677       -1.31688495        1.43475493
 C            1.89076254       -2.20517575        0.64899838
 C            2.70265058        1.07578705        1.37890010
 C            3.09756376       -0.14871742        0.84491417
 C            2.05865993        1.98202473        0.53969080
 C            0.35597258        2.25623558        2.22684052
 C            0.83591639        2.53265938        0.94449743
 C           -1.48300275        1.14634948        3.37088085
 C           -1.01794238        2.06911898        2.42256158
 C           -2.71104086       -0.96634028        3.40105999
 C           -2.67146272        0.45758967        3.13176745
 C           -2.04991895       -2.53628470        1.79371903
 C           -3.11154110       -1.63106049        2.17352927
 C           -0.34560967       -2.99506515        0.20800224
 C           -1.63657869       -2.56492992        0.47191889
 C           -0.00990683       -3.28274999       -1.10346465
 C            2.18514421       -2.28690450       -0.71521040
 C            1.34526447       -3.02425857       -1.54404644
 C            3.44969749       -0.19317573       -0.49419025
 C            3.06559043       -1.35760609       -1.27322204
 C            2.42911838        2.01790435       -0.80362074
 C            3.20917572        0.98080227       -1.31573784
 C            1.75004442        2.86192374       -1.67226545
 C           -0.00614933        3.14460451        0.01327859
 C            0.44369896        3.35563174       -1.28572776
 C           -1.90206605        2.55812950        1.46484696
 C           -1.37892869        3.11511025        0.22771913
 C           -3.39704683        0.67658818        1.89409131
 C           -3.51343890       -0.61013241        1.22702655
 C           -3.08962432        1.78921316        1.13093086
 C           -2.30515402       -1.80122920       -0.49168169
 C           -3.10164262       -0.71656193       -0.09862270
 C           -0.90554108       -2.83004381       -2.15276513
 C           -1.91656017       -1.92542179       -1.82888400
 C            1.29335946       -2.73385538       -2.96762191
 C           -0.10630488       -2.62412972       -3.34787286
 C            2.90664377       -0.92570805       -2.65612493
 C            3.01497748        0.52486759       -2.68458690
 C            1.98862872       -1.56770426       -3.47604023
 C            1.70222280        2.54492259       -3.09044468
 C            2.21146019        1.26380468       -3.54289833
 C           -0.46815470        3.09866202       -2.39088298
 C            0.32071465        2.66036437       -3.52776467
 C           -2.24785296        2.68634198       -0.85784197
 C           -3.13808563        1.67639350       -0.31634811
 C           -3.16880512        0.41757612       -0.90740172
 C           -1.69707507        2.50052158       -2.12236009
 C           -2.26668793       -0.92883617       -2.73923934
 C           -2.83259650        0.31349537       -2.24854540
 C           -2.12603910        1.41395372       -2.89039592
 C           -0.27310239       -1.39806439       -4.10366449
 C            1.03808520       -0.78389964       -4.25118257
 C            1.15268902        0.60223645       -4.29120111
 C           -0.04085029        1.43054238       -4.20389238
 C           -1.38327855       -0.60273797       -3.85160793
 C           -1.26903311        0.84583757       -3.92357495
