   70
C70 / DATE: 7/ 1/2024 / Origin: Program Fullerene / C70 from database
 C            1.30374309        0.04113973        5.04565898
 C            2.51697213        0.02862256        4.24813107
 C            2.56277742       -1.24299890        3.55273474
 C            0.49033197       -1.09136566        4.63085164
 C            1.27211230       -1.88612267        3.69798392
 C           -0.79446106       -0.58010646        4.18803522
 C            0.46205048        1.21928810        5.02137772
 C           -0.85937405        0.81583202        4.55789815
 C            0.87707354        2.36007455        4.22649336
 C            2.74942372        1.07827643        3.26297365
 C            1.96364254        2.21890988        3.26345213
 C            3.03987330       -0.99191953        2.20967551
 C            3.07564263        0.44387037        1.99739305
 C            2.53950537       -1.76261969        1.17880182
 C            0.65305543       -2.36324063        2.54636389
 C            1.43633002       -2.59014268        1.41342969
 C           -1.25779987       -0.97183074        2.93778635
 C           -0.70609420       -2.11479219        2.36903815
 C           -1.92957014       -0.05754167        2.11255519
 C           -1.29256796        1.77143889        3.56056417
 C           -0.29047555        2.81541006        3.49971791
 C           -1.82044455        1.31464213        2.35539593
 C            1.51180689        2.76838427        1.99653992
 C            0.15146151        3.23297496        2.18907236
 C            2.57548515        0.95258671        0.79024822
 C            1.82775902        2.13702059        0.78370058
 C            2.71489850       -1.27467610       -0.10231149
 C            2.51623426        0.09290304       -0.31486200
 C            2.49789707       -2.16618682       -1.13237187
 C            0.85562851       -3.23528015        0.31773363
 C            1.56979697       -3.25329728       -0.87975318
 C           -1.33667168       -2.66426390        1.26734827
 C           -0.53450487       -3.37278782        0.28591197
 C           -2.39066755       -0.48986732        0.86049376
 C           -2.29089412       -1.84320840        0.54362075
 C           -2.62524233        0.44074961       -0.16281100
 C           -1.78667018        2.17557578        1.26403817
 C           -0.70671364        3.05376501        1.12628669
 C           -2.45842554        1.80803249        0.10201106
 C            1.04903300        2.45304167       -0.34123065
 C           -0.14343499        3.15213656       -0.12976974
 C            1.93917749        0.53156319       -1.51271902
 C            1.21532414        1.73030827       -1.53038363
 C            2.24496405       -1.66245490       -2.46121132
 C            1.93645576       -0.31612214       -2.62998327
 C            0.88333063       -3.54035929       -2.12496027
 C            1.43495192       -2.65678926       -3.13836900
 C           -1.25520976       -3.30056893       -0.97746834
 C           -2.26080334       -2.25846839       -0.84758217
 C           -0.56009579       -3.42306410       -2.17005731
 C           -2.77637514       -0.00451256       -1.48933361
 C           -2.38527891       -1.29949508       -1.84350747
 C           -3.10831479        0.90364115       -2.49089297
 C           -2.34055542        2.68918412       -0.96775060
 C           -1.03873019        3.29369628       -1.16958434
 C           -2.84559668        2.30365758       -2.26380426
 C            0.45676066        2.07825825       -2.65631161
 C           -0.62078450        2.94791414       -2.50408473
 C           -1.85122927        2.71560482       -3.24072803
 C            1.26828924        0.06467846       -3.79238181
 C            0.57399741        1.33535298       -3.82848041
 C            0.34370418       -2.19077823       -3.96303997
 C           -0.89410692       -2.54434486       -3.27825954
 C           -1.87922417       -1.56759390       -3.12372736
 C            0.44409562       -0.91647470       -4.49805010
 C           -2.69986597        0.62627389       -3.85335711
 C           -1.85351964        1.72944651       -4.29532162
 C           -0.58172444        1.16844314       -4.69949749
 C           -1.98839653       -0.60505690       -4.12418655
 C           -0.78976220       -0.25436634       -4.86517376
