   70
C70 / DATE: 7/ 1/2024 / Origin: Program Fullerene / C70 from database
 C            1.42619980        0.13105138        4.82399307
 C            0.65784129       -1.08457358        4.62817517
 C            1.53481615       -2.06347851        4.03032599
 C            2.67089490       -0.01271885        4.08571884
 C            2.78733838       -1.39739931        3.69870422
 C            2.69153724        0.99880081        3.04493549
 C            0.68088119        1.22192276        4.22241914
 C            1.53895628        1.85755813        3.25140134
 C           -0.55821569       -0.73127131        3.92298908
 C           -0.58982528        0.70897173        3.75408558
 C           -0.99862305       -1.50963987        2.86100948
 C            1.08293643       -2.75678502        2.83865301
 C           -0.19540063       -2.53850432        2.34069085
 C            3.07954292       -1.69772361        2.31358520
 C            2.17961141       -2.75995829        1.89682169
 C            3.03703658        0.65862817        1.73010659
 C            3.35675574       -0.67268548        1.40988425
 C            2.68162051        1.55693760        0.70967621
 C            0.95359455        2.40002402        2.12394116
 C            1.76393008        2.57177853        1.01712459
 C           -1.10665415        1.21592959        2.56147144
 C           -0.42103777        2.24486730        1.91042336
 C           -1.98293910       -0.96515363        2.04436304
 C           -1.97516237        0.41605975        1.81512060
 C           -2.58191604       -1.80894374        1.12627908
 C           -0.47583271       -3.01684215        1.06026338
 C           -1.78566311       -2.90020995        0.60448258
 C            1.88938177       -2.87853066        0.54133641
 C            0.57747250       -3.16669302        0.14453012
 C            3.44903061       -1.04496008        0.07529573
 C            2.74481251       -2.24268805       -0.35697401
 C            2.98157859        1.25468646       -0.62712779
 C            3.30551279       -0.04956999       -0.96554655
 C            2.51269907        2.07659039       -1.64864772
 C            1.29028427        3.41650311        0.03013049
 C            1.81637469        3.29373455       -1.30701131
 C           -0.96451502        2.77755763        0.73929472
 C           -0.14860631        3.58096966       -0.06514049
 C           -2.52971390        0.93508153        0.63957293
 C           -2.10809175        2.19432394        0.18710994
 C           -3.34526509       -1.24889825        0.03536819
 C           -3.36096645        0.12759560       -0.15173135
 C           -2.09266276       -3.04262773       -0.80709155
 C           -3.17558072       -2.12289721       -1.11552579
 C            0.30743177       -3.30329191       -1.21801058
 C           -1.05674461       -3.21228730       -1.71118275
 C            2.33688806       -2.04904561       -1.73776680
 C            2.62146309       -0.66879216       -2.09149151
 C            1.16252485       -2.63003040       -2.18094124
 C            1.81607534        1.46490515       -2.77333141
 C            1.68928182        0.08272842       -2.80690887
 C            0.71412914        3.46098378       -2.23719402
 C           -0.47518441        3.78437486       -1.46778611
 C            0.67969243        2.29942552       -3.11099876
 C           -2.61496097        2.72124716       -0.99796870
 C           -1.69407464        3.32878868       -1.93862917
 C           -3.88541336        0.61021086       -1.34662729
 C           -3.54969552        1.94436910       -1.78581521
 C           -3.27062737       -1.57532084       -2.38797111
 C           -3.84728508       -0.24793580       -2.51960444
 C           -1.03213653       -2.42958115       -2.93972598
 C            0.30144356       -1.87256957       -3.06851258
 C            0.46753345       -0.49095587       -3.17482219
 C           -2.11839112       -1.63681852       -3.27750634
 C           -0.55054981        1.71104515       -3.38059126
 C           -1.69542830        2.46141439       -3.10165246
 C           -3.00072334        1.83742677       -3.13267521
 C           -3.09438812        0.45540078       -3.54271816
 C           -0.63615342        0.31575189       -3.48955586
 C           -1.86867529       -0.28826340       -3.75449838
