   70
C70 / DATE: 7/ 1/2024 / Origin: Program Fullerene / C70 from database
 C            1.17382765        0.00674511        4.38645211
 C            2.49222186       -0.19809707        3.83162362
 C            2.57699886       -1.58344418        3.41664806
 C            0.37395549       -1.17330811        4.09157680
 C            1.23468242       -2.14243843        3.45231336
 C           -0.81094246       -0.73840685        3.38700759
 C            0.42560715        1.15909748        3.93688356
 C           -0.88594313        0.70507567        3.51109703
 C            1.05306419        2.12329581        3.15840610
 C            2.90002684        0.62328560        2.70606204
 C            2.15317173        1.74606010        2.36984136
 C            3.29658201       -1.62387860        2.15496651
 C            3.31759889       -0.26517409        1.63327423
 C            2.98784471       -2.65207780        1.28378908
 C            0.79018655       -2.82007030        2.32165090
 C            1.77978047       -3.41405836        1.54879466
 C           -1.11835584       -1.31467174        2.16439494
 C           -0.41727319       -2.43649258        1.70486256
 C           -1.93225336       -0.61239436        1.28661992
 C           -1.53468300        1.44065558        2.52107495
 C           -2.12229497        0.76674147        1.44700776
 C            0.22686577        3.13410855        2.68360349
 C           -1.14228443        2.76896082        2.34367005
 C            0.72408766        4.00097818        1.63545376
 C            2.23077201        2.19983863        1.05463692
 C            1.76148848        3.47526111        0.77607129
 C            2.87347202       -0.00761165        0.33069678
 C            2.39726053        1.26682318        0.02161328
 C            2.95191971       -2.36413472       -0.13396850
 C            2.63351962       -1.07124361       -0.54824159
 C            1.41447632       -4.05728982        0.31342911
 C            2.26170580       -3.48658734       -0.72661304
 C           -0.79667954       -3.01507419        0.48093959
 C            0.05082585       -3.93064382       -0.14525915
 C           -2.43714327       -1.26124479        0.16564270
 C           -1.83432178       -2.44423550       -0.27103191
 C           -3.35050223       -0.59322707       -0.64678778
 C           -2.66989896        1.50599965        0.40047660
 C           -3.45644859        0.85250945       -0.53761213
 C           -1.49880518        3.46731526        1.11785073
 C           -0.40106538        4.36264107        0.79421743
 C           -2.13577694        2.76264785        0.09819302
 C            1.41745585        3.82242685       -0.58523137
 C            0.07961538        4.39815714       -0.56849272
 C            1.83712072        1.49751659       -1.23700587
 C            1.43612408        2.77973405       -1.59247164
 C            1.82372360       -0.87581922       -1.68115682
 C            1.39291504        0.41832032       -2.00059214
 C            1.41284971       -3.24579695       -1.86656108
 C            0.15028700       -3.91014572       -1.58809841
 C            1.37671017       -1.97598002       -2.43331013
 C           -2.04995178       -2.88778466       -1.58043141
 C           -0.95522093       -3.50655939       -2.31031725
 C           -3.46315827       -0.94511635       -2.05200567
 C           -2.76236163       -2.04300712       -2.52525399
 C           -3.51038145        1.39542036       -1.87644550
 C           -3.41366558        0.29166595       -2.81474017
 C           -1.90591839        3.12170474       -1.24034651
 C           -0.69218652        3.71082574       -1.57913144
 C            0.23272258        2.93446526       -2.38334069
 C           -2.51732095        2.38150094       -2.24406452
 C            0.44364735        0.63077126       -3.01042926
 C           -2.27357062        0.53910779       -3.68490718
 C           -0.27361554        1.82797286       -3.05060623
 C           -1.65370581        1.77696075       -3.24728199
 C            0.43711531       -1.78225158       -3.43976652
 C           -0.71293710       -2.67239970       -3.47164039
 C           -1.89830959       -1.86770362       -3.68264336
 C           -0.03505046       -0.44701912       -3.74188082
 C           -1.46020256       -0.52920273       -4.03317467
