   70
C70 / DATE: 7/ 1/2024 / Origin: Program Fullerene / C70 from database
 C            1.55935574        0.25969323        5.22713523
 C            0.74211845       -0.93811528        5.15164344
 C            1.50467289       -1.94100685        4.43464513
 C            2.67419670        0.09175636        4.30864000
 C            2.68950330       -1.29104183        3.89177998
 C            2.56860667        1.12292533        3.28988495
 C            0.76233552        1.36974370        4.74070158
 C            1.54008017        2.05264362        3.72638983
 C           -0.56613173       -0.56066843        4.64388620
 C           -0.54975479        0.86670570        4.36681614
 C           -1.21871875       -1.40524757        3.75920989
 C            0.86216208       -2.66514633        3.34945363
 C           -0.50116700       -2.51863945        3.14346586
 C            2.72891132       -1.57898214        2.47482709
 C            1.74750107       -2.60831637        2.20164806
 C            2.64148408        0.78302586        1.93367486
 C            2.85914718       -0.54810877        1.54786354
 C            2.18202298        1.70660325        0.98205834
 C            0.84324983        2.74467730        2.75349278
 C            1.36609743        2.75114897        1.40130433
 C           -1.13593446        1.35851526        3.19717940
 C           -0.58687424        2.50352658        2.62771623
 C           -2.06843590       -0.82474375        2.73856432
 C           -1.94863914        0.52702244        2.41447046
 C           -1.02400640       -2.68229592        1.79793485
 C           -2.15973232       -1.79422036        1.66399037
 C            1.22145776       -2.65569985        0.91431923
 C           -0.15304689       -2.80724238        0.71814567
 C            2.67236897       -0.88170907        0.21232829
 C            1.95430002       -2.04210156       -0.09497964
 C            2.20289083        1.37150902       -0.37683078
 C            2.72608557        0.13294063       -0.73185494
 C            1.35851848        2.04617248       -1.27596050
 C            0.26835436        3.15466387        0.55310516
 C           -0.95487230        2.87488168        1.27886469
 C            0.29742629        2.81272804       -0.78637265
 C           -2.37908921        0.94261774        1.14551065
 C           -1.94296197        2.16500710        0.61544897
 C           -2.48167852       -1.33265786        0.40079969
 C           -2.91563894       -0.01948398        0.28027439
 C           -0.65788700       -2.57839264       -0.56406431
 C           -1.89864303       -1.94361108       -0.70896118
 C            1.56310108       -2.24786708       -1.41262498
 C            0.22592795       -2.59188674       -1.64193682
 C            2.75412700       -0.23722560       -2.06723475
 C            2.28315810       -1.56794989       -2.39014404
 C            1.36146453        1.68972761       -2.63194819
 C            2.19164336        0.65749303       -3.05709833
 C            0.31247648        2.11265210       -3.45681842
 C           -0.91497798        2.77552602       -1.46289470
 C           -2.06184771        2.37666874       -0.75811462
 C           -0.86687674        2.70160050       -2.84803942
 C           -3.41892758        0.38034509       -0.94931387
 C           -3.08561344        1.70686789       -1.41544431
 C           -2.34255172       -1.56708332       -1.98036419
 C           -3.25320842       -0.51523766       -2.08253978
 C           -0.30614198       -2.54949420       -2.92745788
 C           -1.62841714       -1.97787701       -3.10739201
 C            1.81535903       -1.55188770       -3.75895622
 C            1.79901731       -0.16270533       -4.19273925
 C            0.52075491       -2.12584482       -4.04268111
 C           -0.13444064        1.27957033       -4.56877234
 C           -1.59513395       -1.14274096       -4.30431824
 C            0.52479945        0.08811022       -4.83613560
 C           -0.23350697       -1.15422736       -4.81407684
 C           -2.03041929        2.26594163       -3.59391906
 C           -3.13658414        1.69183234       -2.86420751
 C           -3.27721131        0.30464187       -3.28109151
 C           -1.58890861        1.29056582       -4.57468568
 C           -2.30669666        0.04940778       -4.32719957
