   70
C70 / DATE: 7/ 1/2024 / Origin: Program Fullerene / C70 from database
 C            1.53988856        0.05509304        4.47082223
 C            0.73850491       -1.13012838        4.23415710
 C            1.54408649       -2.04190713        3.45255119
 C            2.65483744        0.02281862        3.53791781
 C            2.68146653       -1.28795145        2.94316371
 C            2.53578216        1.16427677        2.65955775
 C            0.72673140        1.20316901        4.13095383
 C            1.48271127        2.00927219        3.19490323
 C           -0.53220301       -0.71589501        3.67648234
 C           -0.57652739        0.73350634        3.69886375
 C           -0.99115288       -1.38659794        2.55253160
 C            0.90363777       -2.89388176        2.56012653
 C           -0.43323546       -2.62773401        2.23204723
 C            1.71736399       -3.48655856        1.59968312
 C            2.97883315       -1.41562166        1.59265877
 C            2.82407569       -2.69861737        1.08310003
 C            2.60170910        0.98277767        1.27463168
 C            2.77843279       -0.30975095        0.73893206
 C            2.10218544        2.01157341        0.46144278
 C            0.76501000        2.76357130        2.28637084
 C            1.37773979        3.04246201        1.07467980
 C           -1.16866190        1.40934897        2.63964775
 C           -0.62437035        2.64106443        2.28797156
 C           -1.74239020       -0.69780767        1.59421690
 C           -1.87162243        0.69241307        1.66511353
 C           -2.26067909       -1.39231100        0.50076902
 C           -1.06234138       -3.39643110        1.26163736
 C           -2.09848097       -2.77683463        0.45218762
 C            1.11973001       -4.20517827        0.49236942
 C           -0.26335651       -4.24668015        0.39026446
 C            2.89850154       -2.91057161       -0.34076996
 C            1.91522426       -3.92121294       -0.69274009
 C            2.55693194       -0.51119892       -0.63412165
 C            2.69514240       -1.77201993       -1.20228709
 C            1.95228727        1.78573078       -0.90882129
 C            1.93104751        0.48069096       -1.37766203
 C            1.49561242        2.80387164       -1.73516962
 C            0.80128566        4.04127752        0.30189337
 C            0.98967694        4.01846106       -1.13241526
 C           -1.34091159        3.43561043        1.40752265
 C           -0.59301066        4.35220662        0.56260071
 C           -2.43188108        1.39158796        0.59076650
 C           -2.33811106        2.78824722        0.57353567
 C           -2.66834135       -0.68803979       -0.64297548
 C           -2.82413161        0.70601624       -0.56564617
 C           -2.68056820       -1.32577863       -1.90039603
 C           -2.08994212       -3.43502820       -0.83220704
 C           -0.87386513       -4.22516881       -0.92625505
 C           -2.16569871       -2.60767472       -2.00793225
 C            1.25071498       -3.48503883       -1.90821432
 C            1.77054538       -2.16869485       -2.25070734
 C           -0.10536860       -3.73400044       -2.06090379
 C           -0.92324105       -2.75525838       -2.74855169
 C            1.14691193        0.13833545       -2.48779317
 C            0.91439606       -1.20885958       -2.78487884
 C           -0.33980936       -1.59979740       -3.26606655
 C            0.62697781        2.46491887       -2.84755189
 C            0.42184578        1.12211917       -3.16266054
 C           -0.28415394        4.33726856       -1.75720373
 C           -1.28054240        4.45154829       -0.70950857
 C           -2.38752026        3.50888531       -0.68918362
 C           -0.51095823        3.37714910       -2.81797312
 C           -3.14553241        1.43374420       -1.71453862
 C           -2.69676859        2.80667672       -1.84243116
 C           -1.78845051        2.85923367       -2.98615654
 C           -2.51543137       -0.54915003       -3.03509092
 C           -1.21999956       -0.61053111       -3.69282935
 C           -0.74979329        0.75441758       -3.81604801
 C           -2.93924784        0.82573916       -3.00603389
 C           -1.92152788        1.60282789       -3.69234919
