   70
C70 / DATE: 7/ 1/2024 / Origin: Program Fullerene / C70 from database
 C            1.30085071       -0.04214041        4.46420604
 C            2.56513010       -0.39104929        3.86297252
 C            2.55683683       -1.82309126        3.61179117
 C            0.45165979       -1.22462126        4.45503773
 C            1.22666723       -2.32773371        3.92246106
 C           -0.80066210       -0.86571167        3.80770365
 C            0.54132576        1.03772793        3.87524187
 C           -0.82701202        0.57870911        3.71051887
 C            1.09682819        1.82278559        2.86649572
 C            2.95475136        0.27658692        2.63399640
 C            2.20332929        1.34910301        2.14159349
 C            3.11233672       -2.04524875        2.28526002
 C            3.39241322       -0.74532197        1.70172740
 C            2.57565873       -3.04329773        1.48551625
 C            0.61639173       -3.20442989        3.03600943
 C            1.40783546       -3.76759182        1.95612443
 C           -1.25846764       -1.62056277        2.73240770
 C           -0.69734605       -2.87491073        2.49356975
 C           -2.01104249       -0.99532441        1.73185056
 C           -1.59225511        1.17357658        2.71795224
 C           -2.33449424        0.36111297        1.85882340
 C            0.23594257        2.73131925        2.26462808
 C           -1.18560278        2.42795049        2.27097867
 C            0.55898396        3.28200013        0.96595976
 C            2.35011276        1.69116279        0.78811107
 C            1.64977500        2.78884701        0.26729053
 C            3.16835534       -0.52363333        0.35109684
 C            3.00257822        0.78949187       -0.06766838
 C            2.40153151       -2.79820888        0.06259555
 C            2.69588001       -1.55122631       -0.47340959
 C            0.52725915       -3.97680345        0.82302101
 C           -0.78183604       -3.44967852        1.16442841
 C            1.18169848       -3.45474408       -0.36519763
 C           -2.26269084       -1.66939620        0.52868012
 C           -1.47140431       -2.76255094        0.17865652
 C           -3.03388471       -1.06795892       -0.47097996
 C           -3.13428894        0.96722404        0.89660390
 C           -3.54716955        0.21047213       -0.27006050
 C           -1.77160112        2.99002979        1.06837449
 C           -0.68895256        3.51034062        0.25079816
 C           -2.81510375        2.31853892        0.45795355
 C           -0.71165887        3.34197406       -1.13298339
 C            1.73230665        3.09443558       -1.08809676
 C            0.50473873        3.38710679       -1.81598745
 C            3.04201742        1.02367211       -1.43269194
 C            2.57054796        2.28697444       -1.94345273
 C            2.14841571       -1.21805000       -1.71459148
 C            2.55719740       -0.02975438       -2.30432171
 C            0.38824203       -2.82296732       -1.31766335
 C           -0.98989259       -2.83900343       -1.12255564
 C            0.93970614       -1.80600973       -2.10636212
 C           -2.96098515       -1.58089250       -1.76661437
 C           -1.79951065       -2.36797017       -2.13719794
 C           -3.27793453       -0.73176989       -2.90294539
 C           -3.63404749        1.14744004       -1.38318948
 C           -2.91877130        2.34906078       -0.98748849
 C           -1.84471191        2.80167230       -1.75586731
 C           -3.51028858        0.68272290       -2.68420030
 C           -1.79381278        2.46281436       -3.10649129
 C           -2.66989455        1.41675866       -3.61431749
 C            0.62217076        2.80788785       -3.14520314
 C            1.84333063        2.02386408       -3.17199919
 C            1.74005796        0.58183239       -3.33226573
 C           -0.50532811        2.27356206       -3.74415301
 C            0.12745283       -1.19257718       -3.07241113
 C           -1.16757786       -1.68602394       -3.24712541
 C           -2.19199384       -0.86605719       -3.86346287
 C           -1.83763378        0.45431732       -4.32263307
 C            0.50128095        0.03410344       -3.64338096
 C           -0.46374107        0.88913373       -4.18346716
