   70
C70 / DATE: 7/ 1/2024 / Origin: Program Fullerene / C70 from database
 C            1.50924510        0.11276582        4.91619163
 C            0.72294691       -1.09874476        4.75361722
 C            1.58634327       -2.09170500        4.16195020
 C            2.70248695       -0.02998501        4.10014735
 C            2.82197521       -1.42823414        3.76296645
 C            2.62264315        0.93749356        3.01930331
 C            0.73612298        1.21068864        4.36959583
 C            1.50796867        1.82361855        3.31095161
 C           -0.50131297       -0.74437434        4.05807997
 C           -0.57400790        0.70657508        4.02321993
 C           -0.89977485       -1.46001593        2.92255362
 C            1.10225279       -2.82399597        3.00977489
 C           -0.18181863       -2.59879643        2.51941685
 C            3.06819850       -1.78010643        2.38036817
 C            2.19654207       -2.89483963        2.05981109
 C            2.82407971        0.52912496        1.69622640
 C            3.23890860       -0.78470682        1.42230123
 C            2.30172422        1.33057501        0.66945543
 C            0.81387529        2.35741233        2.23647422
 C            1.45695369        2.39228556        1.00979195
 C           -1.21989505        1.28438795        2.94320408
 C           -0.58398773        2.31423497        2.24274821
 C           -1.80174218       -0.84517557        2.03978092
 C           -2.12549595        0.49849460        2.25017654
 C           -2.11767886       -1.44954739        0.81732927
 C           -0.48901187       -3.19923451        1.30588152
 C           -1.57551036       -2.67906640        0.50261980
 C            1.89774848       -3.13472148        0.72153197
 C            0.60299644       -3.54103923        0.40378410
 C            3.29706864       -1.21216755        0.10370614
 C            2.65657858       -2.47440306       -0.24293381
 C            2.42246885        0.93325788       -0.66765622
 C            3.02489836       -0.27544229       -0.96555327
 C            1.69681820        1.58747140       -1.66313490
 C            0.87651890        3.15903997        0.01365808
 C            1.11813431        2.81662085       -1.37109511
 C           -1.27235791        2.89994613        1.17361479
 C           -0.53154680        3.49393585        0.14646872
 C           -2.96785429        1.14761291        1.36347622
 C           -2.57971681        2.47693555        0.92781361
 C           -2.75402659       -0.71671831       -0.18274139
 C           -3.42883048        0.43632321        0.19113475
 C           -2.46460578       -0.97216485       -1.53677847
 C           -1.28096110       -2.97497891       -0.88362132
 C            0.10752331       -3.41063514       -0.95680183
 C           -1.76691258       -2.14241604       -1.88594897
 C            2.16857454       -2.36004297       -1.60734799
 C            2.53954887       -1.03838168       -2.09698580
 C            0.92719412       -2.88989860       -1.95565908
 C            1.36286389        0.92183922       -2.85135695
 C            1.71565206       -0.42430904       -3.03035633
 C            0.51542982        1.54659142       -3.77077503
 C           -0.02026276        3.28450425       -2.14123210
 C           -1.08006386        3.61706886       -1.19897419
 C           -0.32701142        2.64714387       -3.33435703
 C           -3.19088636        2.69720021       -0.37020573
 C           -3.75933270        1.42856231       -0.80457817
 C           -2.38420432        3.21636355       -1.45658753
 C           -2.82504087       -0.03957695       -2.53136385
 C           -1.70882752        2.28630186       -3.62666090
 C           -3.33960420        1.20085703       -2.16544791
 C           -2.66715790        2.40581365       -2.62833318
 C           -0.28743269        0.73990948       -4.66816171
 C           -2.27730672       -0.13481563       -3.80833303
 C           -1.67851692        1.05278338       -4.39340862
 C           -1.11772526       -2.21556437       -3.11161613
 C            0.32017594       -2.42293562       -3.11783445
 C            0.88813382       -1.26056935       -3.77387361
 C           -1.41791556       -1.24605529       -4.13977546
 C           -0.15225649       -0.69837520       -4.60963602
