   70
C70 / DATE: 7/ 1/2024 / Origin: Program Fullerene / C70 from database
 C            1.35581217       -0.22253464        4.19997693
 C            2.42178271       -0.37309935        3.22568011
 C            2.27480787       -1.67971273        2.60146694
 C            0.50008497       -1.39272534        4.11029748
 C            1.12492815       -2.33769587        3.20405625
 C           -0.84737351       -0.93827309        3.81576553
 C            0.51093433        0.95343738        4.13707230
 C           -0.86633583        0.50367813        3.99016351
 C            0.95671005        2.05317667        3.41728154
 C            2.79309334        0.71212256        2.43559519
 C            2.17456660        1.94885826        2.62193343
 C            3.46326878        0.45890225        1.24348801
 C            2.52157367       -1.80614963        1.23291762
 C            3.33085798       -0.85260594        0.62447150
 C            1.69189173       -2.61352365        0.44452933
 C            0.30634321       -3.11222668        2.40125714
 C            0.75922829       -3.44051537        1.06676865
 C           -1.53754912       -1.52373135        2.75321991
 C           -1.10269209       -2.75940023        2.28555896
 C           -2.39437214       -0.74748503        1.96499995
 C           -1.76445678        1.25597842        3.24944340
 C           -2.65703121        0.57357972        2.33123081
 C            0.00607960        2.86698428        2.67570188
 C           -1.32391756        2.48237487        2.59876627
 C            2.04619201        2.87166170        1.50480267
 C            0.67347845        3.35097336        1.48065811
 C            3.46902595        1.45470758        0.18240887
 C            2.67671172        2.59850567        0.29570925
 C            3.24877969       -0.65926974       -0.80953579
 C            3.54767539        0.73413565       -1.08263191
 C            1.60805187       -2.40173176       -0.93890723
 C            2.24058399       -1.30124832       -1.51621060
 C            0.70619473       -3.13914254       -1.70281873
 C           -0.41839784       -3.85978983        0.33606084
 C           -1.56045541       -3.24091586        0.99730347
 C           -0.37208406       -3.86253612       -1.04639753
 C           -2.84959777       -1.22013591        0.72566421
 C           -2.44709988       -2.47303449        0.24911135
 C           -3.56778340       -0.36316120       -0.11014824
 C           -3.02802793        1.53786863        1.31296674
 C           -2.01129819        2.57426231        1.32197053
 C           -3.48987421        1.07087399        0.09845855
 C           -0.00157544        3.39037007        0.26253122
 C           -1.28228884        2.83593568        0.16080036
 C            2.16775662        3.19889246       -0.85353793
 C            0.76022014        3.57220048       -0.88440654
 C            3.04422043        1.31525722       -2.23410630
 C            2.51483649        2.66164475       -2.15525272
 C            1.71985313       -0.72148222       -2.67968945
 C            2.15699719        0.54032790       -3.08699320
 C            0.17420119       -2.54953076       -2.91805322
 C            0.58652546       -1.27208524       -3.28239270
 C           -1.59658392       -3.57450269       -1.76705577
 C           -2.62339443       -2.79630054       -1.09726984
 C           -1.23956058       -2.88072983       -2.98998307
 C           -3.55819237       -0.58086373       -1.54527775
 C           -3.08703337       -1.78882509       -2.03581224
 C           -2.19865407       -1.80941023       -3.19013295
 C           -2.95176742        1.64630101       -1.12007958
 C           -1.76198487        2.37360893       -1.07277140
 C           -3.15437268        0.66895907       -2.17509275
 C            0.22187349        3.18220583       -2.17175452
 C            1.33121804        2.72810261       -2.99363813
 C            1.20398134        1.46045192       -3.68646554
 C           -0.97974658        2.48659569       -2.22557087
 C           -0.31611234       -0.43252932       -3.93612723
 C           -1.74503188       -0.61438219       -3.73152313
 C           -2.27907924        0.65122848       -3.25041075
 C           -0.07154500        0.99706915       -3.96467335
 C           -1.20507083        1.63005383       -3.30536786
