   70
C70 / DATE: 7/ 1/2024 / Origin: Program Fullerene / C70 from database
 C            1.33085498       -0.04821954        4.93153768
 C            0.55476860       -1.22133051        4.57173109
 C            1.43001021       -2.12167573        3.86004261
 C            2.58553733       -0.11125859        4.20003654
 C            2.68211898       -1.42076354        3.60383750
 C            2.64549090        1.04206973        3.32845664
 C            0.60476505        1.12110032        4.46539123
 C            1.48010225        1.87280152        3.59622443
 C           -0.65088239       -0.76939483        3.90616630
 C           -0.65966938        0.68213744        3.92043303
 C           -1.09224075       -1.40812702        2.75017408
 C            0.97461304       -2.66490607        2.59579439
 C           -0.30786350       -2.38860938        2.12922646
 C            2.94777776       -1.51578588        2.18022935
 C            2.07069748       -2.54593362        1.66066412
 C            3.07001170        0.90795584        2.00573024
 C            3.14605408       -0.36485643        1.41050553
 C            2.89122242        2.02149747        1.19482263
 C            0.92072539        2.56561452        2.52796969
 C            1.78150159        2.91175847        1.49082212
 C           -1.15637775        1.33559349        2.79818800
 C           -0.44627288        2.41247360        2.25336113
 C           -2.03917858       -0.74642841        1.97573182
 C           -2.06656393        0.65300264        1.99183054
 C           -2.60987774       -1.42513928        0.90706900
 C           -0.58568274       -2.69826845        0.79768046
 C           -1.86348799       -2.44489674        0.30813871
 C            1.76810703       -2.51042880        0.31128309
 C            0.47777046       -2.84084145       -0.10513393
 C            3.04042125       -0.49339977        0.01657196
 C            2.53375462       -1.69358169       -0.50606160
 C            2.98237763        1.89089504       -0.24187927
 C            3.16424418        0.63779403       -0.80253688
 C            1.24767209        3.40319111        0.23374245
 C            2.00454057        2.78673919       -0.84150770
 C           -0.99304803        3.07666671        1.15718350
 C           -0.11897610        3.55566558        0.09775898
 C           -2.73225452        1.34825982        0.98036060
 C           -2.19571600        2.54954897        0.53021065
 C           -3.63037797       -0.78690512        0.21227089
 C           -3.60572858        0.65946571        0.14409063
 C           -4.06126139       -1.28466393       -1.07817183
 C           -2.17344441       -2.90052696       -0.96801884
 C           -3.32727202       -2.37648195       -1.67332491
 C            0.22017273       -2.92665272       -1.47993270
 C           -1.09508618       -3.04285462       -1.92530066
 C            2.40693481       -1.86733897       -1.87484442
 C            1.18836132       -2.47895355       -2.38154781
 C            2.95660047        0.52748486       -2.17372792
 C            2.76402000       -0.78039800       -2.75530520
 C            1.36759900        2.38938740       -2.01657757
 C            2.01561489        1.44052153       -2.80739247
 C           -0.74060930        3.23888555       -1.17445373
 C           -2.09409812        2.78504343       -0.90223959
 C           -0.00507001        2.62096642       -2.18258893
 C           -3.66584334        1.02244841       -1.26391434
 C           -4.04029080       -0.16719794       -2.00959942
 C           -2.70808054        1.89357384       -1.77740284
 C           -2.88483750       -1.95167948       -2.99155115
 C           -1.49259224       -2.33810854       -3.13545300
 C           -3.24890976       -0.55807801       -3.15984674
 C            0.76769058       -1.72723091       -3.55441673
 C            1.73954869       -0.67370903       -3.78067916
 C            1.28295827        0.70072699       -3.82046995
 C           -0.58706954       -1.46297912       -3.72655636
 C           -0.70320942        1.99281769       -3.21068546
 C           -2.09333774        1.61115236       -2.99954298
 C           -2.30214150        0.32579704       -3.65599176
 C           -0.06814433        0.94643304       -3.99216528
 C           -0.99914337       -0.17186518       -4.07644689
