   70
C70 / DATE: 7/ 1/2024 / Origin: Program Fullerene / C70 from database
 C            1.24851562       -0.01678119        4.48357904
 C            2.56375433       -0.26378419        3.92519334
 C            2.56773511       -1.61560360        3.39686878
 C            0.42490489       -1.18586187        4.21395395
 C            1.20006470       -2.10617062        3.41351127
 C           -0.83910748       -0.72485915        3.69332403
 C            0.50878068        1.15548582        4.04955336
 C           -0.82686686        0.72367818        3.68062055
 C            1.14051628        2.11679239        3.27595019
 C            3.06395148        0.61766613        2.88500984
 C            2.43289058        1.83057214        2.65701388
 C            3.27077241       -1.59490608        2.12936582
 C            3.44360724       -0.20205453        1.74520342
 C            2.86781632       -2.49093129        1.15720142
 C            0.66078507       -2.61341311        2.23162420
 C            1.54772556       -3.09964972        1.27348823
 C           -1.40539462       -1.36731449        2.60346037
 C           -0.64766653       -2.27736232        1.84736399
 C           -2.48817407       -0.74048973        1.99945385
 C           -1.51190618        1.36183080        2.64892999
 C           -2.54488881        0.66182620        2.02727265
 C            0.35550715        2.86965225        2.31387987
 C           -0.93577231        2.45529736        1.98497375
 C            2.38342038        2.34626160        1.30349757
 C            1.26114235        3.26362707        1.25221027
 C            3.10406368        0.20164512        0.44803391
 C            2.61637056        1.49183387        0.22395209
 C            3.01573728       -2.10866379       -0.22913656
 C            3.02536040       -0.75481999       -0.56825991
 C            1.07795027       -3.36468273       -0.07530950
 C            2.16373715       -3.01032396       -0.97439751
 C           -1.12931862       -2.69364709        0.59565962
 C           -0.22639400       -3.02623542       -0.41692321
 C           -3.18922031       -1.46175210        1.04394849
 C           -2.45274423       -2.42453616        0.25126504
 C           -4.14146442       -0.79647465        0.17919070
 C           -3.35621552        1.35892802        1.14166921
 C           -4.22767426        0.64492402        0.22971422
 C           -1.51695635        2.93385209        0.80250279
 C           -2.77637098        2.47355453        0.42188846
 C            0.73230495        3.58106568        0.01669383
 C           -0.70910697        3.52666196       -0.16914919
 C            2.11186725        1.83578624       -1.03134769
 C            1.33297739        2.98784043       -1.16244845
 C            2.61761952       -0.38420563       -1.85333715
 C            2.16791825        0.92303590       -2.08698576
 C            1.86004360       -2.67427551       -2.27759934
 C            2.34574829       -1.40254134       -2.77370855
 C           -0.53145321       -2.72832908       -1.75047311
 C            0.47883044       -2.76493374       -2.70903929
 C           -2.77414782       -2.17408708       -1.14297961
 C           -3.83104342       -1.17781143       -1.18776103
 C           -1.72954152       -2.08285746       -2.05272599
 C           -3.97596720        1.15477521       -1.10837183
 C           -3.05329301        2.26642737       -0.99313759
 C           -3.60088704        0.03647004       -1.94746250
 C           -0.95292299        3.22498292       -1.57238815
 C            0.34104296        3.06567486       -2.21786483
 C           -2.00648056        2.37668918       -1.90200515
 C            1.55923676        1.26365314       -3.29957421
 C            0.45538407        2.20432645       -3.29216769
 C            1.57929217       -1.12771089       -3.97120723
 C            0.36127207       -1.92225844       -3.88633000
 C            1.20129289        0.23499703       -4.25278261
 C           -1.73213879       -1.04014854       -2.98407505
 C           -2.43847193        0.12908658       -2.70150022
 C           -1.80758689        1.36976644       -2.85479119
 C           -0.72081650        1.46900544       -3.72186615
 C           -0.76374512       -1.01246394       -3.97892751
 C           -0.24620160        0.27426839       -4.40098818
