   70
C70 / DATE: 7/ 1/2024 / Origin: Program Fullerene / C70 from database
 C            1.22636939       -0.02511125        4.92746070
 C            2.52827530       -0.40833834        4.42201522
 C            2.38024721       -1.70794085        3.77674312
 C            0.37983991       -1.20029547        4.84699309
 C            0.98612627       -2.09193333        3.87450557
 C           -0.96558908       -0.73013887        4.60136964
 C            0.50691424        1.05491708        4.26822041
 C           -0.89192063        0.69814103        4.31619507
 C            1.02537644        1.61360730        3.10027961
 C            3.17553622        0.47375363        3.47443169
 C            2.39658945        1.53794395        2.86543637
 C            2.98491804       -1.61854206        2.46345204
 C            3.67684767       -0.35055810        2.38904304
 C            2.25903017       -2.01628206        1.35016286
 C            0.28306945       -2.40767553        2.71075225
 C            0.97551022       -2.55579678        1.49897830
 C           -1.71476260       -1.33273703        3.52009436
 C           -1.11118908       -2.28705820        2.70400315
 C           -1.71317099        0.95083034        3.14949360
 C           -2.45606706       -0.26294187        2.88216031
 C            0.17154981        1.99509510        2.05250941
 C           -1.18314224        1.64105988        2.06542944
 C            0.72137279        2.49888640        0.87035753
 C            2.87994163        1.66386352        1.50972605
 C            3.54463807        0.42085194        1.16456307
 C            2.05114273        2.21085905        0.55101492
 C            2.64859134       -1.53198887        0.10402585
 C            3.13051895       -0.22380385       -0.00203247
 C            2.13984824       -2.15572153       -1.01994133
 C            0.29532998       -3.00327992        0.36119169
 C            0.92710506       -2.94326629       -0.88031424
 C           -1.81281077       -2.66267775        1.56674183
 C           -1.08849327       -3.12926009        0.39997772
 C           -2.90972660       -0.47508003        1.58955951
 C           -2.86223214       -1.77618426        1.09301971
 C           -1.87674675        1.57710675        0.85601406
 C           -2.84787892        0.58183451        0.68315140
 C           -0.12702921        2.87376729       -0.17598967
 C           -1.40501991        2.30155111       -0.24345537
 C            0.48483026        3.31768009       -1.34586179
 C            2.34139991        1.90275346       -0.76795856
 C            2.68482733        0.58032291       -1.06031029
 C            1.72811212        2.68033744       -1.73004488
 C            2.04058884       -1.40612389       -2.25661165
 C            2.19603684       -0.02281579       -2.22639893
 C            0.13160838       -2.73522058       -2.08190535
 C            0.95162926       -1.98692685       -3.01904436
 C           -1.87656681       -2.78310065       -0.77763148
 C           -3.01728846       -1.99970832       -0.33333080
 C           -1.22516859       -2.44383633       -1.96203022
 C           -3.42045803        0.39423347       -0.56602249
 C           -3.45235026       -0.94961128       -1.12299037
 C           -2.11651161        2.27039167       -1.45477029
 C           -3.10204053        1.30817191       -1.64220224
 C           -0.30056148        3.49347868       -2.54570478
 C           -1.62962357        2.93310526       -2.57900644
 C            1.53461480        2.13751955       -3.05453278
 C            1.59454905        0.75579755       -3.22185196
 C            0.45114630        2.90586047       -3.64499077
 C            0.33163296       -1.21224502       -3.98173981
 C            0.82367747        0.13392082       -4.20918027
 C           -1.82884425       -1.56049659       -2.86595331
 C           -2.97258759       -0.85667566       -2.48756112
 C           -3.11961531        0.53561124       -2.87488134
 C           -1.11872739       -1.13740562       -3.98901056
 C           -1.80151724        2.32068806       -3.88880316
 C           -0.49235764        2.24239483       -4.51857340
 C           -0.25054408        0.85872765       -4.86983589
 C           -2.41897238        1.00818266       -3.97395563
 C           -1.47982767        0.11753233       -4.63464457
