   70
C70 / DATE: 7/ 1/2024 / Origin: Program Fullerene / C70 from database
 C            1.35723450       -0.00956359        4.82153053
 C            2.51493421       -0.17372438        3.96928839
 C            2.51256765       -1.54153674        3.47359687
 C            0.52882635       -1.19651734        4.67708470
 C            1.26286291       -2.16108968        3.87530471
 C           -0.78545606       -0.76580029        4.22356771
 C            0.50687376        1.14266053        4.61281428
 C           -0.85364059        0.65992473        4.42851382
 C            0.78817825        2.04518228        3.50801245
 C            2.68570693        0.70688174        2.82453210
 C            1.77293509        1.73245856        2.57128416
 C            2.85648831       -1.50147698        2.05952477
 C            3.13241856       -0.11739260        1.72022492
 C            2.14205216       -2.28575830        1.15080043
 C            0.56346900       -2.89943011        2.93390033
 C            1.17048611       -3.15164875        1.63675134
 C           -1.30845696       -1.32003553        3.05605976
 C           -0.82883016       -2.56563604        2.67633914
 C           -1.96032736       -0.50951995        2.10605577
 C           -1.45819354        1.46636834        3.39745575
 C           -0.50131305        2.49658619        3.02814722
 C           -2.17870959        0.85328215        2.37864601
 C           -0.59204533        3.02172514        1.74765605
 C            1.61853817        2.19365462        1.26095043
 C            0.56211655        3.06074282        0.96292590
 C            2.85800607        0.29724919        0.43183300
 C            2.31215915        1.56133513        0.22116034
 C            2.08851334       -1.88550472       -0.19076374
 C            2.68363269       -0.67247150       -0.54279299
 C            1.21791334       -2.52628520       -1.09219486
 C            0.09044716       -3.54571975        0.76400663
 C           -1.14860917       -3.08020942        1.36841333
 C            0.22103536       -3.38777681       -0.60471359
 C           -2.29886882       -1.04167031        0.84316845
 C           -2.04468127       -2.39395929        0.56156894
 C           -2.72240577       -0.18942596       -0.18810128
 C           -2.60073143        1.69461741        1.35769080
 C           -1.82129560        2.89581836        1.10913109
 C           -2.97092760        1.14429614        0.07450325
 C           -1.92608344        3.21694260       -0.29951507
 C           -2.64632065        2.12613271       -0.94514087
 C            0.48371335        3.61458873       -0.31146775
 C           -0.82409196        3.77075546       -0.93206146
 C            2.16091152        2.01088732       -1.09227601
 C            1.40054211        3.14989553       -1.33615827
 C            2.69162365       -0.26316345       -1.86225246
 C            2.47493817        1.14634308       -2.14522497
 C            1.18921499       -2.11625206       -2.43840261
 C            1.97258191       -1.03933456       -2.84909513
 C            0.18775470       -2.57814325       -3.29427622
 C           -0.96462678       -3.49875274       -1.31399246
 C           -2.13856364       -2.84813064       -0.75278055
 C           -0.95588680       -3.25824848       -2.73398588
 C           -2.65897300       -0.60399529       -1.51634601
 C           -2.64692903       -1.96565618       -1.77818842
 C           -2.13060054       -2.45901678       -3.03998234
 C           -2.24706399        1.68191980       -2.20408815
 C           -2.38641942        0.32971822       -2.53052845
 C           -0.66861724        3.56054281       -2.35676786
 C            0.73897025        3.31178488       -2.61936620
 C           -1.42189139        2.49315543       -2.98712285
 C            1.76470679        1.23891584       -3.41252796
 C            1.47204473       -0.11443764       -3.85902555
 C            0.82129838        2.24107014       -3.59673729
 C           -0.54046675        1.88336520       -3.96818483
 C           -0.33095483       -1.69503077       -4.32481313
 C           -1.74857266       -1.50404342       -4.05293902
 C           -1.93932283       -0.09517061       -3.78327473
 C            0.26209173       -0.37951957       -4.48639538
 C           -0.81791064        0.59224761       -4.39095902
