   70
C70 / DATE: 7/ 1/2024 / Origin: Program Fullerene / C70 from database
 C            1.66185155        0.05155638        4.42077627
 C            0.84912539       -1.14500959        4.34565638
 C            1.36634689       -1.97805874        3.27268058
 C            2.64413772       -0.01879304        3.35449343
 C            2.44749582       -1.25596899        2.62753577
 C            2.56411536        1.21562840        2.61029847
 C            0.79594631        1.18682886        4.14628241
 C            1.38210496        1.93068295        3.05554697
 C           -0.53903524       -0.73159066        4.28381315
 C           -0.55418471        0.69332244        3.98614705
 C           -1.42437058       -1.55480043        3.60768996
 C            0.46261867       -2.66327917        2.47200343
 C           -0.89076661       -2.65619071        2.82020606
 C            0.81967021       -2.96563317        1.15925846
 C            2.49159520       -1.22132777        1.23588520
 C            1.78871706       -2.18181447        0.51046759
 C            2.79498612        1.18167449        1.24490512
 C            2.90672208       -0.05316302        0.59055915
 C            2.35895642        2.27380897        0.50809801
 C            0.55477715        2.46749381        2.07486496
 C            1.16273971        2.88782943        0.89342068
 C           -1.32080505        1.15213458        2.91613229
 C           -0.81139696        2.14093215        2.05541494
 C           -2.48420813       -0.94979737        2.82088139
 C           -2.44398850        0.41327194        2.53879598
 C           -1.89171876       -2.99018589        1.81821064
 C           -2.82070136       -1.87305833        1.74828008
 C           -0.05691887       -3.74982463        0.41822637
 C           -1.48110280       -3.59598468        0.64369141
 C            0.13511015       -3.88714101       -1.00549534
 C            1.91379519       -2.20086450       -0.88355194
 C            1.17552639       -3.11081793       -1.64095673
 C            3.04497011       -0.05459928       -0.80067138
 C            2.54739487       -1.13939734       -1.54126341
 C            2.81881405        2.38024885       -0.79543546
 C            3.30656144        1.16925267       -1.42543934
 C            2.04942386        3.11777792       -1.78271187
 C            0.39233611        3.56656263       -0.03929850
 C            0.79416446        3.59010192       -1.43461269
 C           -1.61990960        2.64160075        1.02563058
 C           -1.04922710        3.40813633        0.00739130
 C           -3.25541781        0.88466816        1.51600541
 C           -2.89148477        2.10863871        0.83372102
 C           -3.19418155       -1.34503669        0.51397835
 C           -3.71980942       -0.05844515        0.50853578
 C           -2.04986056       -3.13707096       -0.60916298
 C           -1.12306684       -3.53119311       -1.65118557
 C           -2.64436028       -1.87806732       -0.66041336
 C            0.62460332       -2.67708509       -2.90923777
 C           -0.80720338       -2.58322773       -2.69811940
 C            2.42250746       -1.05517356       -2.93283366
 C            1.25294205       -1.63547634       -3.56040988
 C            3.12602939        1.32679019       -2.85274863
 C            2.20315311        2.43184784       -3.05471550
 C            2.63798021        0.20451883       -3.61417272
 C            0.44300733       -0.50806178       -3.98375392
 C            1.01806248        1.89892513       -3.70464775
 C            1.36314944        0.58721658       -4.20952292
 C           -0.35370214        3.16865556       -2.21965163
 C           -1.52049088        3.26002258       -1.36536726
 C           -0.22025638        2.09655242       -3.10005045
 C           -3.43367840        2.02607435       -0.51256905
 C           -3.84119994        0.65146502       -0.74459194
 C           -2.60035232        2.43435510       -1.62457946
 C           -2.45043480       -1.06549540       -1.79032946
 C           -1.39759231       -1.32291203       -2.67185827
 C           -0.75884556       -0.26201012       -3.32303390
 C           -1.15861733        1.05562154       -3.06868929
 C           -3.10692910        0.15504887       -1.88769510
 C           -2.40561997        1.27730963       -2.48670813
