   70
C70 / DATE: 7/ 1/2024 / Origin: Program Fullerene / C70 from database
 C            1.20473008        0.26672798        4.74792732
 C            2.45213900        0.06563865        4.04036567
 C            2.53306083       -1.34248983        3.70675448
 C            0.39276442       -0.92804286        4.56207409
 C            1.20690025       -1.91361711        3.87590750
 C           -0.85633007       -0.52075997        3.94911150
 C            0.38945974        1.40441037        4.38585971
 C           -0.94718455        0.91350422        4.08599942
 C            0.79080349        2.23011640        3.26117481
 C            2.70633557        0.81741129        2.82034473
 C            1.83186880        1.82674917        2.42225021
 C            3.16159985       -1.45108455        2.40259303
 C            3.19398240       -0.11628461        1.82057110
 C            2.78454386       -2.51007090        1.59470298
 C            0.66063903       -2.62338404        2.80956573
 C            1.54841572       -3.20992019        1.91052874
 C           -1.21846433       -1.10198585        2.74102904
 C           -0.63472976       -2.31614074        2.37725132
 C           -1.95591879       -0.37075665        1.79642297
 C           -1.44179789        1.67951463        2.96056837
 C           -0.44283551        2.68426866        2.65296922
 C           -2.04650083        1.02436505        1.89001011
 C           -0.40127048        3.14276187        1.34945411
 C            1.75927496        2.16782937        1.07099303
 C            0.82300582        3.12565623        0.68605408
 C            2.81403628        0.06718320        0.49146528
 C            2.26364502        1.28805762        0.10429507
 C            2.78978365       -2.32249835        0.15969737
 C            2.71295379       -1.03228089       -0.36475748
 C            1.04678202       -3.78832326        0.67539687
 C            1.94090913       -3.36228610       -0.39150490
 C           -1.18963112       -3.03051453        1.32376877
 C           -0.32323957       -3.81139721        0.45456799
 C           -2.40501701       -1.01081314        0.63865560
 C           -2.18289206       -2.37983649        0.49000808
 C           -2.82290058       -0.25437696       -0.46023294
 C           -2.25031750        1.76754717        0.72570169
 C           -1.54669951        2.97093453        0.58492287
 C           -2.79265817        1.14004296       -0.39738164
 C           -1.62543555        3.69136696       -0.59769375
 C            0.85814901        3.59538261       -0.62213197
 C           -0.37378849        4.11705314       -1.19436308
 C            1.98468023        1.51377640       -1.24407110
 C            1.48681820        2.75892098       -1.62848799
 C            2.21412829       -0.85607894       -1.65776010
 C            1.91139205        0.42690962       -2.12023450
 C            1.44652944       -3.19212763       -1.67401739
 C            1.77680829       -1.96917073       -2.37979964
 C           -0.83474041       -3.70078644       -0.90198482
 C           -2.08280168       -2.95694065       -0.83936368
 C            0.04831692       -3.48261593       -1.95457431
 C           -3.04174517       -0.88182668       -1.68797621
 C           -2.49025932       -2.20146110       -1.92714516
 C           -2.88247612       -0.12738339       -2.91727994
 C           -3.04177871        1.88477523       -1.54990783
 C           -2.48785385        3.21824545       -1.65837420
 C           -2.89578989        1.25665300       -2.85050666
 C           -0.40537957        3.76346803       -2.60108992
 C            0.72612166        2.89206786       -2.86184252
 C           -1.74333605        3.29254642       -2.90738182
 C           -1.90095593        2.01997488       -3.58746040
 C            1.30602903        0.57545394       -3.36917114
 C            0.55830825        1.77959622       -3.67241888
 C           -0.77902226        1.37145662       -4.09454610
 C            0.78362077       -1.80486843       -3.42436776
 C           -0.35497170       -2.64169842       -3.07224517
 C           -1.63925150       -2.10901378       -3.10510474
 C           -1.86226370       -0.80264219       -3.70674917
 C            0.57377052       -0.53795263       -3.94407491
 C           -0.78206866       -0.07893557       -4.20296103
