   70
C70 / DATE: 7/ 1/2024 / Origin: Program Fullerene / C70 from database
 C            1.56413043       -0.03317697        4.73479760
 C            0.72108451       -1.19817706        4.55140460
 C            1.20621528       -1.92893547        3.39546970
 C            2.54570544       -0.02433851        3.66369834
 C            2.30661864       -1.17150294        2.82242395
 C            2.50412248        1.27708595        3.04501627
 C            0.72458502        1.14122120        4.56896295
 C            1.35181372        1.98405361        3.58391234
 C           -0.65434714       -0.74584754        4.54118925
 C           -0.62600113        0.69472955        4.31467831
 C           -1.57429453       -1.50289298        3.83569391
 C            0.27666491       -2.50054822        2.53048251
 C           -1.07932242       -2.48245124        2.87376716
 C            0.62718448       -2.67988074        1.19207075
 C            2.34237348       -1.01111379        1.44309322
 C            1.71090436       -1.96994648        0.66347544
 C            2.73092973        1.38546816        1.67557135
 C            2.63755976        0.23545407        0.87121812
 C            2.40535667        2.61413862        1.11574426
 C            0.55860969        2.67379428        2.67968043
 C            1.26440488        3.32089989        1.67667026
 C           -1.33565378        1.23611541        3.23782343
 C           -0.72705680        2.17574263        2.38572042
 C           -2.68024524       -0.80862247        3.20759188
 C           -2.48884699        0.57595030        2.81503395
 C           -2.07934315       -2.60820561        1.82342853
 C           -3.06148798       -1.55985722        2.02664475
 C           -0.32297362       -3.20263679        0.32118645
 C           -1.65757574       -2.85917897        0.52455632
 C            0.08167967       -3.54851753       -0.96134570
 C            1.91944788       -1.95980430       -0.71088380
 C            1.29408151       -2.93891058       -1.47818912
 C            2.55606106        0.36117468       -0.52497331
 C            2.39034008       -0.78782931       -1.30841403
 C            2.34454874        2.75326828       -0.32101072
 C            2.37654029        1.61884724       -1.11541192
 C            0.54007638        3.92709321        0.58923532
 C            1.33755367        3.74852400       -0.61016329
 C           -1.31712012        2.44945452        1.13782438
 C           -0.78758330        3.43342463        0.31317716
 C           -2.92478970        0.70289685        1.43536742
 C           -3.28218557       -0.61655885        0.94711913
 C           -2.23544636        1.55725280        0.59205736
 C           -2.35724792       -2.25850275       -0.52324552
 C           -2.87962713       -0.98040954       -0.33164754
 C           -0.90887594       -3.50779789       -2.01913372
 C           -2.07635677       -2.67136569       -1.81776723
 C            1.12981907       -2.75374259       -2.90906090
 C           -0.24822675       -3.07890485       -3.23760852
 C            2.39170032       -0.66395479       -2.69808101
 C            1.72059456       -1.65896716       -3.52071999
 C            1.87366012        1.70188127       -2.41657059
 C            2.13588863        0.64162907       -3.27938300
 C            0.42715783        3.47595496       -1.69788949
 C           -0.89892276        3.27892939       -1.12762916
 C            0.82454377        2.59705702       -2.69601831
 C           -2.22303739        1.30106575       -0.78274164
 C           -2.55763470        0.02020880       -1.24851887
 C           -1.69306185        2.25951985       -1.65434751
 C           -2.09975447       -1.68657682       -2.88646089
 C           -1.08039058       -2.06403085       -3.85827093
 C           -2.29519044       -0.34140429       -2.57107041
 C            0.98534144       -0.95536053       -4.56126151
 C            1.31910198        0.45421474       -4.46559983
 C           -0.46584107       -1.07349082       -4.61132728
 C           -0.18312836        2.20265841       -3.56542406
 C           -1.48969583        1.92798141       -2.99230432
 C           -1.90846969        0.63110809       -3.48246891
 C            0.09115861        1.20709082       -4.57658626
 C           -1.01782389        0.26755267       -4.57425796
