   70
C70 / DATE: 7/ 1/2024 / Origin: Program Fullerene / C70 from database
 C            1.58418581       -0.12996465        4.76632012
 C            0.74751942       -1.30846067        4.68915138
 C            1.37253206       -2.23073534        3.75615477
 C            2.60624296       -0.25392071        3.73956992
 C            2.35918700       -1.47217053        3.00327868
 C            2.61914883        0.98188115        3.00123202
 C            0.75761002        1.01367005        4.42071576
 C            1.49054172        1.78520832        3.45039997
 C           -0.61373350       -0.87162409        4.42242397
 C           -0.54764404        0.52888593        4.03441849
 C           -1.43762963       -1.72450732        3.70627896
 C            0.55076152       -3.10903115        3.07075426
 C           -0.88772542       -2.99473662        3.26128008
 C            0.77800778       -3.31834494        1.65126047
 C            2.26310034       -1.41462857        1.61099392
 C            1.61012285       -2.45146864        0.93782542
 C            2.86354433        0.95096512        1.63333954
 C            2.59781761       -0.23317732        0.92275314
 C            2.67288460        2.16185967        0.98654685
 C            0.78855036        2.47053308        2.46901204
 C            1.57958602        2.99307648        1.46122570
 C           -1.06651502        0.93098664        2.80227820
 C           -0.50463855        2.03277748        2.13030021
 C           -2.21869162       -1.18717856        2.60460342
 C           -1.96265839        0.09587845        2.12988540
 C           -1.52956765       -3.33906140        2.00761632
 C           -0.49257411       -3.70034240        1.06265113
 C           -2.42169956       -2.25596507        1.64252862
 C           -0.69656342       -3.38177080       -0.26817745
 C            1.47374244       -2.39720538       -0.44978385
 C            0.42517517       -3.11219723       -1.03952529
 C            2.44212516       -0.19143658       -0.47228301
 C            2.08233740       -1.35532117       -1.15107923
 C            2.65360983        2.20891512       -0.45574998
 C            2.50191500        1.02852821       -1.16640880
 C            0.95045030        3.58433690        0.30993213
 C            1.83982069        3.35464393       -0.81492508
 C           -1.08137772        2.45969752        0.92044795
 C           -0.41384144        3.41122033        0.13190038
 C           -2.34670253        0.41744499        0.83423319
 C           -2.12502485        1.70572232        0.37039348
 C           -2.51330731       -1.92736773        0.29569306
 C           -1.89701482       -2.76873883       -0.62798918
 C           -2.72131158       -0.59536534       -0.05952125
 C           -2.12746076       -2.53651880       -1.97777223
 C            0.26028403       -3.09114177       -2.41708718
 C           -1.08603897       -2.90125994       -2.92590097
 C            2.02208837       -1.33922301       -2.53971689
 C            1.15343868       -2.28240338       -3.21783604
 C            2.08820902        1.10455860       -2.50086203
 C            1.89232682       -0.06683949       -3.21946526
 C            1.30692335        3.41596070       -2.09058533
 C            1.45869079        2.26348234       -2.96473092
 C           -0.94897227        3.80804317       -1.09073906
 C           -0.05647076        3.89922334       -2.23611421
 C           -2.71245384        2.08087838       -0.82838942
 C           -2.18554421        3.21746784       -1.55055372
 C           -2.95217563       -0.28774022       -1.40498675
 C           -2.65789255       -1.24356976       -2.37931259
 C           -3.02210439        1.04659162       -1.79686259
 C           -1.03719927       -1.88292854       -3.95975424
 C            0.34733614       -1.54405985       -4.17946657
 C            0.73040834       -0.15335705       -4.08962266
 C           -1.95262929       -0.82511784       -3.58269958
 C            0.23726831        2.12968772       -3.74452418
 C           -0.67043760        3.18463859       -3.34135638
 C           -2.00672785        2.82124877       -2.94059372
 C           -2.39911172        1.43342100       -3.05218838
 C           -0.23881564        0.84597448       -4.00380096
 C           -1.57523722        0.51147245       -3.69703396
