   70
C70 / DATE: 7/ 1/2024 / Origin: Program Fullerene / C70 from database
 C            1.35523882       -0.22778104        4.06919308
 C            2.43078087       -0.46235161        3.12304868
 C            2.39889154       -1.87276568        2.77384171
 C            0.49003162       -1.39246308        4.05385138
 C            1.15160296       -2.42803568        3.27967973
 C           -0.83639414       -0.95504721        3.65101007
 C            0.52387437        0.94520348        3.89005893
 C           -0.82203159        0.49223624        3.56635487
 C            1.04840559        2.01198051        3.17986396
 C            2.68557243        0.49467557        2.13862266
 C            2.20987018        1.78989822        2.32546657
 C            3.10646762        0.08977245        0.86827465
 C            2.87812794       -2.26550267        1.53364312
 C            3.40956147       -1.25312637        0.64129460
 C            2.11252211       -3.19934046        0.71845983
 C            0.37601969       -3.23721061        2.46018084
 C            0.88207722       -3.65626310        1.16094047
 C           -1.51830182       -1.67499928        2.68067209
 C           -1.03493395       -2.92719554        2.29511743
 C           -2.45021447       -1.02305484        1.87324381
 C           -1.52493002        1.12269184        2.54064072
 C           -2.39394010        0.37570086        1.73001427
 C            0.13947326        2.86483766        2.44403741
 C           -1.14797425        2.41247604        2.15942820
 C            2.09580771        2.68290629        1.18502158
 C            0.91715810        3.50494606        1.39758189
 C            3.02967531        0.96807248       -0.22015880
 C            2.37528483        2.20023382       -0.08891202
 C            3.40805469        0.51281547       -1.48148483
 C            3.30697399       -1.78951254       -0.70245821
 C            2.25420775       -2.78752648       -0.66754834
 C            3.34472118       -0.90922509       -1.76629646
 C            1.12178276       -2.61030392       -1.46461693
 C           -0.23825887       -3.67392443        0.23527375
 C           -1.44520449       -3.49230849        1.02194548
 C           -0.13092529       -3.04377886       -1.00613112
 C           -3.18530573       -1.79414814        0.97624459
 C           -2.56602158       -2.97390203        0.40067742
 C           -3.93000917       -1.14855140       -0.07972412
 C           -3.15305833        1.02486635        0.74099195
 C           -3.79056050        0.27713415       -0.24273003
 C           -1.88489716        3.07953118        1.19226984
 C           -2.85655515        2.34249859        0.41245684
 C            0.25229264        4.02527598        0.29997138
 C           -1.19988992        3.99266530        0.29156608
 C            1.80587404        2.83290804       -1.20507590
 C            0.70690462        3.67129380       -1.03339791
 C            2.91220576        1.19799473       -2.65484156
 C            1.97668223        2.28316954       -2.47032243
 C            2.38148802       -1.07662150       -2.83897541
 C            1.22079948       -1.81616766       -2.61174162
 C            2.28258613        0.20557495       -3.51307897
 C            0.07960709       -1.51973794       -3.35021075
 C           -1.29880611       -2.68324128       -1.68647991
 C           -2.52901174       -2.76419281       -1.03448157
 C           -3.55356546       -1.78061048       -1.33551980
 C           -1.21491340       -1.96044662       -2.87212984
 C           -3.45985781        0.54336882       -1.63398891
 C           -3.25758830       -0.73330054       -2.29625516
 C           -2.16696435       -0.88778596       -3.13338677
 C           -2.64340595        2.66809857       -0.99048781
 C           -1.63640407        3.69788944       -1.06321895
 C           -0.46449335        3.44972685       -1.86749695
 C           -2.62966858        1.62831061       -1.91416665
 C            0.79036765        1.99905490       -3.26356569
 C            0.97030849        0.70007008       -3.88835073
 C           -0.09260772       -0.18544745       -3.91123311
 C           -1.40370499        0.28559618       -3.51014196
 C           -0.45279476        2.37560576       -2.75279719
 C           -1.51810702        1.45678999       -2.75953345
