   70
C70 / DATE: 7/ 1/2024 / Origin: Program Fullerene / C70 from database
 C            1.66428084        0.24715016        4.70823422
 C            0.82494313       -0.93629435        4.65763647
 C            1.38913009       -1.84434273        3.67775137
 C            2.65224417        0.13688944        3.64830620
 C            2.52703188       -1.17553909        3.05877936
 C            2.50969255        1.28405374        2.78014677
 C            0.82684640        1.39226483        4.40536158
 C            1.47170172        2.13653519        3.34319688
 C           -0.54688644       -0.50651678        4.48503696
 C           -0.52911956        0.91742145        4.18499019
 C           -1.39916517       -1.32332429        3.76465383
 C            0.53217365       -2.59389498        2.86940087
 C           -0.85103797       -2.44966027        3.01383412
 C            1.03918923       -3.09838788        1.67369931
 C            2.70543396       -1.32080257        1.68927904
 C            2.24696611       -2.50191232        1.13222778
 C            2.54942721        1.09183662        1.39933159
 C            2.80493542       -0.18387881        0.87098893
 C            2.02281398        2.08377843        0.57149313
 C            0.66279781        2.84123987        2.46884061
 C            1.09271758        2.97980725        1.09344757
 C           -1.24170857        1.40659585        3.08586708
 C           -0.76278932        2.53754180        2.42987521
 C           -2.39641651       -0.70397249        2.91796065
 C           -2.18813958        0.59442165        2.45289037
 C           -1.72426327       -2.66186112        1.86479860
 C           -2.83030442       -1.72751041        1.98804296
 C            0.14401542       -3.35449757        0.55402946
 C           -1.16269420       -2.90439940        0.61272716
 C            2.19849967       -2.62942636       -0.30202027
 C            0.90126325       -3.17490370       -0.66551800
 C            2.86684092       -0.33864857       -0.52226434
 C            2.71262370       -1.61511713       -1.08897477
 C            2.07264608        1.91596923       -0.80853947
 C            2.72161390        0.79728113       -1.32837778
 C            1.15409005        2.61176333       -1.59903209
 C           -0.09015062        3.28197400        0.31409150
 C           -1.23530138        2.84451206        1.09116200
 C           -0.06162686        2.99479565       -1.03927747
 C           -2.74061370        0.96975885        1.22101098
 C           -2.17224588        2.01837357        0.48456692
 C           -3.48948769       -1.32903040        0.84219930
 C           -3.63342861        0.09391589        0.60347682
 C           -1.77759178       -2.39824918       -0.53726999
 C           -3.07406690       -1.90307635       -0.42218582
 C            0.27837952       -2.67461439       -1.80491268
 C           -1.01984325       -2.15122595       -1.69958320
 C            2.43443417       -1.72065505       -2.44389644
 C            1.12013579       -2.22415255       -2.82071097
 C            2.88833798        0.69082573       -2.70748291
 C            2.75801428       -0.61465611       -3.31204043
 C            1.26168293        2.56199799       -2.98139948
 C            2.20225167        1.63233189       -3.57544670
 C            0.03934545        2.51152983       -3.76129824
 C           -1.24487144        2.61550362       -1.67126665
 C           -2.27309400        2.04340745       -0.91263377
 C           -1.23093084        2.42627212       -3.05365381
 C           -3.92080971        0.23913498       -0.80799678
 C           -3.60208862       -1.03372295       -1.44623141
 C           -3.23546048        1.26987156       -1.55472682
 C           -1.52199286       -1.31932989       -2.71971006
 C           -1.95079608        1.29641173       -3.61704788
 C           -2.78285253       -0.74009422       -2.59830102
 C           -2.91565042        0.68320125       -2.84121637
 C            0.60142751       -1.35194513       -3.85134410
 C            1.71319048       -0.53467964       -4.31658039
 C            1.49125704        0.86883763       -4.59208672
 C            0.12713241        1.35173218       -4.63364816
 C           -0.65519805       -0.78588903       -3.67684715
 C           -0.94888122        0.45727372       -4.24581367
