   70
C70 / DATE: 7/ 1/2024 / Origin: Program Fullerene / C70 from database
 C            1.16684427       -0.05929568        4.32528444
 C            2.48252333       -0.37429949        3.82388139
 C            2.49486274       -1.78320933        3.46805573
 C            0.35366501       -1.26382870        4.22378439
 C            1.12352043       -2.26025414        3.51888094
 C           -0.92427188       -0.87731858        3.68162886
 C            0.42364322        1.01909658        3.70016593
 C           -0.95092985        0.57466704        3.61986200
 C            0.96080477        1.71351162        2.61594399
 C            2.97854452        0.36585433        2.68548455
 C            2.28212292        1.47207982        2.20239229
 C            3.22820249       -1.92593746        2.22067151
 C            3.50898709       -0.58782741        1.72407695
 C            2.80171171       -2.89050543        1.32398840
 C            0.59536265       -2.87299825        2.38462981
 C            1.50649439       -3.51152286        1.54916785
 C           -1.46953805       -1.59290088        2.62143245
 C           -0.65501438       -2.46321072        1.87470139
 C           -2.60368999       -1.04395326        2.03605621
 C           -1.78478289        1.16885994        2.68609067
 C           -2.80851427        0.39148237        2.15036832
 C            0.08112955        2.41608114        1.77978101
 C           -1.30555773        2.24896887        1.94551566
 C            0.59049844        3.16745769        0.71092248
 C            2.70585496        1.97223090        0.97929244
 C            1.87017591        2.90241559        0.25426332
 C            3.37844252       -0.29523119        0.36544390
 C            3.28128963        1.04509900        0.01671386
 C            2.86933620       -2.59846248       -0.09396235
 C            2.88355035       -1.26908262       -0.51026242
 C            1.06674422       -4.04165032        0.28359680
 C            1.97637144       -3.53556165       -0.73737282
 C           -1.08435408       -2.90594769        0.60659430
 C           -0.27701118       -3.74924356       -0.15556154
 C           -2.99281129       -1.43769201        0.70027700
 C           -2.19401873       -2.31832790       -0.01046483
 C           -3.50756511        0.84311077        0.95911330
 C           -3.53514495       -0.26672748        0.02290687
 C           -2.19586119        2.89516265        1.09456463
 C           -3.26318849        2.12032197        0.48396406
 C           -0.26920140        3.82360601       -0.16121326
 C           -1.69006320        3.80758922        0.09486256
 C           -0.06625946        3.66963964       -1.59576014
 C            2.07371186        2.66661202       -1.16573786
 C            2.79874358        1.41212158       -1.29667502
 C            1.03941285        2.94511432       -2.05508179
 C            2.20465828       -0.88847866       -1.68279848
 C            2.30302186        0.43136600       -2.14361364
 C            1.16525001       -3.07365466       -1.83857634
 C           -0.18828471       -3.52924745       -1.58524005
 C            1.34677939       -1.78891262       -2.33799585
 C           -2.30684051       -2.33248095       -1.40061727
 C           -1.22419574       -2.86211446       -2.21267738
 C           -3.23263992       -0.05854740       -1.32220875
 C           -2.83335171       -1.15625933       -2.08093122
 C           -3.18504859        2.33224538       -0.94888249
 C           -2.36897958        3.51496369       -1.15710667
 C           -1.37648947        3.49611552       -2.21420310
 C           -3.02717681        1.24130490       -1.80352325
 C           -1.52616632        2.57630414       -3.24014678
 C           -2.42354600        1.44325811       -3.04770352
 C            0.93371231        2.16923740       -3.20895915
 C            1.54268310        0.84490022       -3.23375870
 C           -0.33664674        2.08767596       -3.90502152
 C            0.38777443       -1.30242797       -3.22345699
 C           -0.89872440       -1.84361034       -3.19640067
 C           -2.05137675       -0.96262005       -3.28918153
 C           -1.87833835        0.31748000       -3.78687164
 C            0.59075795       -0.07166761       -3.82794693
 C           -0.56160464        0.69907622       -4.26444632
