   70
C70 / DATE: 7/ 1/2024 / Origin: Program Fullerene / C70 from database
 C            1.66074407        0.00868763        4.36272029
 C            0.83654471       -1.16768972        4.14881639
 C            1.52412330       -2.01964207        3.20471827
 C            2.71621491       -0.00630872        3.36570333
 C            2.67867523       -1.28711387        2.70040597
 C            2.58302560        1.17999322        2.55303388
 C            0.83538952        1.17366220        4.10982343
 C            1.45482695        1.94789585        3.05086644
 C           -0.50064674       -0.72844549        3.81282928
 C           -0.52674487        0.72189362        3.90416721
 C           -1.15221339       -1.34133215        2.74572754
 C            0.77432099       -2.75370316        2.29264739
 C           -0.59749888       -2.48900343        2.16353648
 C            1.46580836       -3.27864689        1.20593685
 C            2.94777348       -1.35094231        1.33583950
 C            2.60083129       -2.53048324        0.69353427
 C            2.73851532        1.07422070        1.17984035
 C            3.01317347       -0.16801870        0.58393544
 C            2.22681865        2.10042343        0.39623408
 C            0.61629776        2.57045791        2.12909863
 C            1.06613140        2.75889099        0.81736144
 C           -1.30551885        1.41606972        2.99093706
 C           -0.75679382        2.54021583        2.36777812
 C           -2.15267406       -0.63321683        2.07016239
 C           -2.32817991        0.72694257        2.34327976
 C           -2.75376063       -1.19000677        0.93947624
 C           -1.33434637       -3.16773501        1.19637241
 C           -2.48892354       -2.51253126        0.60828262
 C            0.73907830       -3.83053882        0.07907014
 C           -0.64291264       -3.88608961        0.13621084
 C            2.54874117       -2.57238150       -0.75122088
 C            1.39865029       -3.37851616       -1.14041372
 C            3.12308410       -0.23248332       -0.81311663
 C            2.85172818       -1.43602143       -1.48604165
 C            2.61020618        2.15879091       -0.93461877
 C            3.20003477        0.96995841       -1.52131673
 C            1.68808507        2.71831873       -1.90438897
 C            0.18996370        3.29330610       -0.13474221
 C            0.39636264        3.01150470       -1.48623946
 C           -1.57952770        3.31094180        1.55988928
 C           -1.06461185        3.74116159        0.27088597
 C           -3.24028336        1.46314904        1.59325621
 C           -2.94656240        2.86540163        1.36258121
 C           -3.27915661       -0.34659224       -0.03781660
 C           -3.73472205        0.90493761        0.34647832
 C           -2.94796572       -0.56393126       -1.37859830
 C           -2.55948425       -2.89995908       -0.78827611
 C           -1.39704534       -3.71671173       -1.08834159
 C           -2.64524450       -1.85235035       -1.78999173
 C            0.65136873       -3.00920894       -2.26273957
 C           -0.73667836       -3.14523701       -2.24805781
 C           -1.55821936       -2.04478346       -2.73227662
 C            2.44231395       -1.42778339       -2.81676993
 C            1.21298212       -2.11565744       -3.17196936
 C            2.91525653        1.00679357       -2.94232405
 C            1.87438473        1.99927837       -3.15336486
 C            2.49696560       -0.21014988       -3.59600075
 C           -0.92635545       -0.93757370       -3.29208081
 C            0.35072551       -1.13235579       -3.80672888
 C            0.72901370        1.32041504       -3.72716377
 C            1.16833835        0.01119815       -4.14884773
 C           -0.67690538        2.56240631       -2.26320233
 C           -2.50696202        0.50434836       -2.15969637
 C           -0.49325387        1.45395466       -3.08246152
 C           -1.34758077        0.35187925       -2.92955746
 C           -2.15470279        3.67904143       -0.68399275
 C           -3.33574038        3.19385378        0.00472971
 C           -3.74741253        1.96309541       -0.64480722
 C           -1.96972382        2.87094994       -1.87251132
 C           -2.93814645        1.78910625       -1.83649030
