   70
C70 / DATE: 7/ 1/2024 / Origin: Program Fullerene / C70 from database
 C            1.51915776        0.07505194        4.40287295
 C            0.73505911       -1.13123373        4.20276444
 C            1.45641878       -1.98364799        3.29089693
 C            2.63557983        0.03422634        3.47538202
 C            2.63256332       -1.25720524        2.83053888
 C            2.56017000        1.20577208        2.63674762
 C            0.68616377        1.20736783        4.03880341
 C            1.35736570        1.93862255        2.98929960
 C           -0.60281364       -0.73760366        3.83785993
 C           -0.64252173        0.71217528        3.76905875
 C           -1.27129982       -1.44505275        2.84588673
 C            0.75115338       -2.73449026        2.35712745
 C           -0.61508412       -2.46404418        2.12698251
 C            1.51553350       -3.29630275        1.34202682
 C            2.97050899       -1.34412846        1.48201908
 C            2.64448911       -2.53266417        0.83506158
 C            2.86412540        1.08941865        1.28789469
 C            3.11723053       -0.17124462        0.72115034
 C            2.44917441        2.12169471        0.45416728
 C            0.60100293        2.47104332        1.95023651
 C            1.26831136        2.80106630        0.77339158
 C           -1.37262920        1.28080607        2.73412009
 C           -0.78737575        2.25691925        1.91048547
 C           -2.39531567       -0.84335467        2.29023054
 C           -2.45349271        0.55723622        2.24742619
 C           -3.20157736       -1.61592320        1.46986875
 C           -1.28652273       -3.09056341        1.05624044
 C           -2.57892072       -2.68568830        0.72253463
 C            0.86226908       -3.92898644        0.22369884
 C           -0.55270949       -3.71090059        0.04779038
 C            2.59069937       -2.57335403       -0.61354635
 C            1.53681636       -3.49836909       -0.98977303
 C            3.23044860       -0.26596660       -0.67229369
 C            2.71779134       -1.38929668       -1.32306000
 C            2.95264685        2.15165093       -0.83909165
 C            3.42195140        0.90295562       -1.40704160
 C            2.25303951        2.88762995       -1.87695439
 C            0.57464343        3.50032032       -0.20226717
 C            1.02909314        3.47208724       -1.58168538
 C           -1.53382969        2.78661642        0.84290515
 C           -0.87355060        3.43507480       -0.20241005
 C           -3.33445911        1.21150135        1.39975954
 C           -2.82327716        2.30503120        0.59779313
 C           -4.17936383       -0.98802648        0.60299816
 C           -4.26156138        0.45442349        0.58369873
 C           -2.88158924       -2.44994030       -0.68219541
 C           -3.90614041       -1.43320851       -0.75432230
 C           -0.77220259       -3.29328463       -1.32870848
 C            0.52522451       -3.04821922       -1.92829788
 C           -1.82675772       -2.42458899       -1.58701924
 C            1.97312698       -1.22784938       -2.49355374
 C            0.73261965       -1.85816277       -2.60727627
 C            3.09022430        0.90887830       -2.82153404
 C            2.42552041        2.16597003       -3.12499510
 C            2.26778269       -0.16686768       -3.33716104
 C            1.25924838        1.86886065       -3.93501734
 C            1.18718477        0.42656790       -4.10142205
 C           -0.13100043        3.21902095       -2.42790946
 C           -1.29832379        3.16906707       -1.56794825
 C           -0.04334626        2.32793387       -3.48893077
 C           -3.22866705        2.05724604       -0.77987208
 C           -4.08487394        0.88715289       -0.79191596
 C           -3.65109271       -0.26026802       -1.55931455
 C           -2.27370737        2.20260991       -1.77849661
 C           -1.59055527       -1.26684734       -2.34650625
 C           -0.37601570       -1.12301767       -3.02560577
 C           -0.17358753        0.00697892       -3.81298040
 C           -0.95561880        1.19736714       -3.53428766
 C           -2.45186527       -0.16235591       -2.25439192
 C           -1.98268985        1.10631220       -2.60193324
