   70
C70 / DATE: 7/ 1/2024 / Origin: Program Fullerene / C70 from database
 C            1.75982064       -0.17385258        5.23726113
 C            0.91006828       -1.33303749        5.44436028
 C            1.29672257       -2.33841820        4.47512409
 C            2.60848619       -0.43884021        4.08656078
 C            2.34129496       -1.78287067        3.62649165
 C            2.43464161        0.64461123        3.14500170
 C            0.90222633        0.94532968        4.89466847
 C            1.41230849        1.53499458        3.66676727
 C           -0.45755154       -0.94745447        5.13803831
 C           -0.47604236        0.48640159        4.91916335
 C            0.08416609       -2.81666778        3.83387835
 C           -0.94651558       -1.82122434        4.07910201
 C            0.20617277       -3.31873164        2.55391167
 C            2.25381310       -2.01973767        2.25725522
 C            1.45853606       -3.08398359        1.85713089
 C            2.40756031        0.35706399        1.78685950
 C            2.47317139       -0.97131183        1.34675698
 C            1.86360580        1.31208595        0.93809309
 C            0.50706632        2.08616982        2.76392650
 C            0.87588434        2.17084472        1.41998846
 C           -1.33634758        0.98591015        3.95598268
 C           -0.85040550        2.02110149        3.06297001
 C           -1.63951473       -1.25757937        3.00090643
 C           -2.07963061        0.05331001        3.11792571
 C           -0.83700933       -3.02290210        1.59102241
 C           -1.57542801       -1.85683171        1.73331352
 C            1.18054839       -3.24544346        0.45587902
 C           -0.26408919       -3.32568186        0.30405212
 C            2.35206830       -1.22321650       -0.03151436
 C            1.87058652       -2.46842541       -0.45856625
 C            1.98332852        1.13155575       -0.43015588
 C            2.30788673       -0.13570225       -0.91989417
 C            1.43766648        2.08782436       -1.28321946
 C           -0.02604982        2.72212302        0.50811143
 C            0.37738058        2.87619117       -0.82449446
 C           -1.79564672        2.06419323        1.97140339
 C           -2.46676600        0.77923655        1.92808478
 C           -1.39300918        2.58223848        0.75885063
 C           -1.96779202       -1.15069120        0.57800860
 C           -2.52515936        0.12754420        0.69909828
 C           -0.80474311       -2.75799350       -0.83691491
 C           -1.66635448       -1.65812372       -0.70581430
 C            1.43141580       -2.59114109       -1.76604012
 C            0.00840014       -2.82440797       -1.95701056
 C            2.26287977       -0.36699568       -2.29874645
 C            1.83299757       -1.60960525       -2.74607532
 C            1.71009343        1.99340431       -2.64346779
 C            2.17142097        0.72044860       -3.16680592
 C            0.79765926        2.57684985       -3.61296930
 C           -0.57960524        3.33435713       -1.73518221
 C           -0.36273484        3.19303488       -3.16425106
 C           -2.19426927        2.26902322       -0.32055677
 C           -2.60662954        0.93491718       -0.43538307
 C           -1.96396321        2.99999042       -1.46741054
 C           -2.00018805       -0.90797943       -1.85290451
 C           -2.62704529        0.33438735       -1.69188363
 C           -0.38634326       -2.13433752       -3.15451950
 C            0.83530234       -1.68236470       -3.79948837
 C           -1.47501937       -1.27877650       -3.10682582
 C            1.56694045        0.53392159       -4.47970656
 C            0.75968931        1.70505553       -4.77761169
 C            0.75090163       -0.64518596       -4.71278307
 C           -1.69974120       -0.49181183       -4.23243329
 C           -0.51940821        1.24358670       -5.29074922
 C           -0.57388421       -0.19516520       -5.10804425
 C           -1.64863587        2.87183341       -3.77229314
 C           -2.56682685        2.54873655       -2.69764661
 C           -2.89109269        1.14213281       -2.79768198
 C           -1.74084192        1.79655797       -4.73994895
 C           -2.48842728        0.70952523       -4.11695526
