   70
C70 / DATE: 7/ 1/2024 / Origin: Program Fullerene / C70 from database
 C            1.11497269       -0.01527037        4.54993329
 C            2.35865113       -0.35328469        3.90729651
 C            2.25173943       -1.74205848        3.48697547
 C            0.28729874       -1.21378081        4.52440305
 C            0.84817607       -2.07454330        3.50675563
 C           -1.07536487       -0.77716491        4.37207922
 C            0.31368706        1.04490873        3.97889150
 C           -1.04562241        0.67588262        4.28985345
 C            0.60114728        1.51969658        2.69350838
 C            2.75822304        0.39924678        2.73615047
 C            1.85754650        1.26523280        2.11590269
 C            2.94060147       -1.84898973        2.22876986
 C            3.48252067       -0.53950245        1.90863703
 C            2.33749385       -2.54535700        1.19583388
 C            0.18404254       -2.23896621        2.28437311
 C            0.92867938       -2.57466607        1.14297530
 C           -1.82036931       -1.23446827        3.21767822
 C           -1.15375865       -1.83065575        2.14733659
 C           -2.06960921        1.05517016        3.35339167
 C           -2.74347882       -0.16134901        2.93187592
 C           -0.43728543        2.05243279        1.90726928
 C           -1.76661583        1.98034248        2.36418193
 C           -0.16957832        2.42470126        0.58268813
 C            2.07988375        1.58675492        0.77634876
 C            1.13508772        2.35905756        0.09834903
 C            3.65642746       -0.24053251        0.56420222
 C            3.12019142        0.95115372        0.07444738
 C            3.05539410       -2.53927578        0.01107201
 C            3.78131217       -1.32114997       -0.31025785
 C            2.42796176       -3.01870047       -1.19261588
 C            0.27314561       -2.67713730       -0.09233393
 C            0.98482910       -3.05747426       -1.22736180
 C           -1.72233424       -1.71361827        0.87487282
 C           -1.00267867       -2.13162684       -0.24944098
 C           -3.35807177       -0.12253144        1.69233945
 C           -2.94893108       -1.04730102        0.72329870
 C           -2.80241181        2.22633605        1.47283890
 C           -3.74664350        1.14301399        1.26754369
 C           -1.21239905        2.71931233       -0.30178316
 C           -2.51218656        2.77445730        0.16881202
 C           -0.99212733        2.66171851       -1.67925068
 C            1.39478653        2.80169175       -1.19490561
 C            0.30218748        2.84983916       -2.14927724
 C            3.34766659        1.26511986       -1.26118716
 C            2.56168225        2.30423243       -1.89047659
 C            3.68608890       -1.10726291       -1.74444708
 C            2.88501119       -2.18511238       -2.29403308
 C            3.49248430        0.18156946       -2.21991310
 C            0.57945673       -2.53894688       -2.51827409
 C            1.72701197       -1.85644462       -3.10107677
 C           -1.52613160       -1.95144877       -1.53738372
 C           -0.66987515       -1.95394401       -2.63981508
 C           -3.56077771       -1.02029146       -0.52911598
 C           -2.81101515       -1.44370691       -1.69675491
 C           -4.32656045        1.30092117       -0.04481251
 C           -3.58693141        2.36123237       -0.71463690
 C           -4.34054605        0.14624452       -0.91501505
 C           -1.94744702        2.06504248       -2.51198930
 C           -3.06279674       -0.48664439       -2.76755048
 C           -3.24592187        1.88850235       -2.04165621
 C           -3.86644796        0.58428762       -2.21237045
 C           -0.84026086       -0.99230006       -3.63005424
 C           -1.51996810        1.23565881       -3.54628293
 C           -2.00720509       -0.13472812       -3.59475417
 C            0.73278964        2.15309708       -3.35129746
 C            2.12985414        1.80865739       -3.18833075
 C            2.52554763        0.41402611       -3.28283292
 C            1.56784695       -0.55888096       -3.58526057
 C           -0.11830910        1.22187515       -3.92239954
 C            0.29823387       -0.17229991       -4.01193743
