   70
C70 / DATE: 7/ 1/2024 / Origin: Program Fullerene / C70 from database
 C            1.49672093        0.21919699        5.12157246
 C            0.73185771       -0.99438651        4.90652643
 C            1.62239179       -1.95436230        4.29996801
 C            2.68611936        0.13510806        4.28814146
 C            2.81797222       -1.23748950        3.86808910
 C            2.57964424        1.16436220        3.27193284
 C            0.70455328        1.32971244        4.62908665
 C            1.54109801        2.07903162        3.71593868
 C           -0.48126969       -0.63769145        4.19587368
 C           -0.55376940        0.80992878        4.11711595
 C           -0.87481383       -1.36946444        3.08453107
 C            1.14875767       -2.70467466        3.15333501
 C           -0.12906000       -2.47515429        2.64304072
 C            2.98612371       -1.51873813        2.45694126
 C            2.25272223       -2.74525615        2.22016860
 C            2.65316391        0.83164287        1.91218118
 C            2.88991225       -0.49249434        1.51073066
 C            2.19994323        1.76751636        0.97554209
 C            0.89849965        2.82795499        2.75169045
 C            1.47521674        2.86554111        1.42521963
 C           -1.08558410        1.40047702        2.96702699
 C           -0.52501467        2.60189654        2.54679722
 C           -1.78933266       -0.78319605        2.21915636
 C           -1.75929184        0.60268056        2.02850370
 C           -2.40296470       -1.59611323        1.28613277
 C           -0.43830927       -3.03697810        1.39988045
 C           -1.68436518       -2.77504246        0.84029882
 C            1.97284722       -3.08382255        0.91152096
 C            0.60511705       -3.43540252        0.56269790
 C            2.68372339       -0.85358517        0.17672604
 C            2.43260640       -2.19013613       -0.13204334
 C            2.11384425        1.42702262       -0.37533846
 C            2.39205855        0.11941893       -0.77776829
 C            1.49010980        2.30979597       -1.27041490
 C            0.43892781        3.40320910        0.57442722
 C           -0.82728804        3.09272762        1.22254435
 C            0.52213135        3.19919033       -0.79326446
 C           -2.17551006        1.15449970        0.79961081
 C           -1.80422014        2.46439006        0.46448466
 C           -3.04040500       -1.00061226        0.13280590
 C           -2.81957637        0.34345255       -0.15116950
 C           -1.86423900       -2.86955106       -0.59989527
 C           -2.96013135       -1.97693777       -0.93842569
 C            0.48652558       -3.25029790       -0.87694948
 C            1.65375647       -2.50601357       -1.31271666
 C           -0.74703415       -2.93091151       -1.43321128
 C            2.07112306       -0.28076090       -2.07612075
 C            1.47822351       -1.52831831       -2.27386191
 C            1.53347245        2.02747026       -2.63533713
 C            1.92149626        0.69413818       -3.05382510
 C            0.43110139        2.44854215       -3.48824936
 C           -0.66702901        3.33266851       -1.50043041
 C           -1.88935968        2.87570648       -0.85906199
 C           -0.71822706        2.95433389       -2.89735817
 C           -3.01590228        0.79442092       -1.46249470
 C           -2.61227677        2.07386077       -1.81792630
 C           -2.00601192        2.30880204       -3.12176594
 C           -3.06965937       -1.53287932       -2.24219620
 C           -3.31983255       -0.12284991       -2.46975406
 C           -0.78147734       -2.27092663       -2.66635787
 C            0.38196579       -1.63286212       -3.12574082
 C           -2.02808990       -1.90807126       -3.17602792
 C            1.17937211        0.36832242       -4.26169108
 C            0.31590578        1.49462780       -4.57532113
 C            0.35868630       -0.82766348       -4.26113597
 C           -2.14750412        1.35494546       -4.12266572
 C           -2.90846990        0.15187524       -3.83930613
 C           -2.12368262       -0.98823028       -4.29263522
 C           -0.99353031        0.96659772       -4.91733516
 C           -0.90445915       -0.48419398       -4.88244378
