   70
C70 / DATE: 7/ 1/2024 / Origin: Program Fullerene / C70 from database
 C            1.15408021       -0.11669658        4.88739184
 C            2.37347617       -0.36431005        4.14333457
 C            2.21756312       -1.63692778        3.45110060
 C            0.30618829       -1.28586695        4.72601307
 C            0.85259470       -2.07469311        3.63424395
 C           -1.05929190       -0.82039915        4.62270171
 C            0.35271082        1.05413194        4.56980195
 C           -1.03443364        0.63206824        4.52141523
 C            0.80812084        1.96914600        3.62760017
 C            2.81849973        0.61314173        3.16603753
 C            2.11127303        1.79434318        2.99707940
 C            2.70737884       -1.46482518        2.10260251
 C            3.24100779       -0.12165009        1.99121293
 C            1.96906931       -1.95702167        1.03084013
 C            0.06340767       -2.32617626        2.51047744
 C            0.65867833       -2.40849888        1.23700486
 C           -1.86509499       -1.30812158        3.52462125
 C           -1.32875727       -2.22624576        2.62655683
 C           -1.85367743        1.00729654        3.37667096
 C           -2.59017457       -0.17569304        2.98017377
 C           -0.10748371        2.46984356        2.61214731
 C           -1.32154670        1.82621642        2.38545957
 C            2.03785201        2.38461594        1.67158593
 C            0.69372364        2.89219361        1.48180295
 C            3.18569662        0.47458547        0.73903240
 C            2.65868464        1.76434594        0.58936935
 C            2.34165068       -1.53286003       -0.24405240
 C            3.12780497       -0.37837470       -0.35441728
 C            1.63559940       -2.00569658       -1.35043265
 C           -0.12268907       -2.75617060        0.13024471
 C            0.37360050       -2.57191710       -1.16537117
 C           -2.11541476       -2.53171445        1.52693709
 C           -1.48183239       -2.99236234        0.31190884
 C           -3.03999615       -0.27729930        1.67137670
 C           -3.11981633       -1.55828285        1.13113440
 C           -1.80896792        1.71408342        1.07991315
 C           -2.82989737        0.79654586        0.80549409
 C            0.15846208        2.82456775        0.20734854
 C           -1.14896946        2.36762332        0.02961477
 C            2.29175804        2.18009353       -0.69740459
 C            1.03861390        2.78254729       -0.86855006
 C            3.34796201        0.18551858       -1.59885299
 C            2.90599988        1.55231326       -1.78102153
 C            2.06289764       -1.66320125       -2.63300513
 C            2.99608517       -0.56779854       -2.78116578
 C            1.09540897       -1.55594096       -3.71106904
 C           -0.48223945       -2.72577669       -2.25866567
 C           -0.17727254       -2.06746014       -3.51672081
 C           -2.41096913       -2.71950174       -0.77210324
 C           -3.35640771       -1.72219606       -0.29141748
 C           -1.91553871       -2.62840881       -2.06229587
 C           -3.34985324        0.71744323       -0.48130011
 C           -3.61294342       -0.59327861       -1.05706252
 C           -1.68795112        2.34921411       -1.26047186
 C           -2.80422763        1.56056642       -1.52721363
 C            0.51601192        2.97636310       -2.14046417
 C           -0.91552959        2.81304296       -2.32606335
 C            2.33838036        1.66384932       -3.11393788
 C            2.44912072        0.36176726       -3.75449210
 C            1.26686106       -0.25224839       -4.33696036
 C            1.18893554        2.41589194       -3.29951799
 C           -1.12901935        2.26087841       -3.65302267
 C            0.15561403        0.53869588       -4.60892742
 C            0.16919252        1.94001185       -4.22051134
 C           -1.34256350       -1.28163849       -3.89747826
 C           -2.40717702       -1.58834369       -2.95450256
 C           -3.19867351       -0.56205954       -2.44921264
 C           -2.88770100        0.81845567       -2.77868660
 C           -1.18081984        0.02087817       -4.35991328
 C           -1.98303476        1.09737704       -3.79396607
