   70
C70 / DATE: 7/ 1/2024 / Origin: Program Fullerene / C70 from database
 C            1.30860784        0.04529237        4.72798358
 C            2.51755338       -0.04491621        3.93865273
 C            2.50467477       -1.33364555        3.27165389
 C            0.46126695       -1.08586192        4.37255538
 C            1.16987358       -1.88327795        3.39179202
 C           -0.84617367       -0.56913917        4.02584012
 C            0.50704907        1.24511260        4.62400193
 C           -0.86555507        0.83279188        4.38498222
 C            0.84182503        2.24166615        3.61874041
 C            2.78574725        0.96482425        2.92646633
 C            1.94274388        2.06735826        2.77775483
 C            3.03754689       -1.14282446        1.93829419
 C            3.26897750        0.27537243        1.73761654
 C            2.47260659       -1.84535376        0.89181632
 C            0.51606296       -2.26692371        2.22457585
 C            1.28245170       -2.54984623        1.09888003
 C           -1.41824278       -0.94020224        2.81534140
 C           -0.83069107       -1.95285425        2.04643597
 C           -2.36499276       -0.09712607        2.23187672
 C           -1.44695592        1.76655517        3.44055832
 C           -0.41279310        2.71795878        3.05806322
 C           -2.29348679        1.28424944        2.44943032
 C           -0.43096189        3.24556877        1.76793326
 C            1.97654562        2.76399611        1.57544855
 C            0.77672874        3.44008059        1.10329392
 C            3.01826843        0.82983246        0.47919287
 C            2.62901194        2.16027686        0.42244899
 C            2.74668224       -1.39633296       -0.38824664
 C            2.75852398       -0.01687013       -0.61144510
 C            2.44471260       -2.26010362       -1.42263425
 C            0.66230405       -3.12551606       -0.00831172
 C            1.44219954       -3.27129932       -1.15610247
 C           -1.46527256       -2.37082185        0.87443006
 C           -0.73490021       -3.04450848       -0.11312876
 C           -3.12246116       -0.58932658        1.17712407
 C           -2.71416249       -1.83615406        0.55773623
 C           -3.54493301        0.30831766        0.11324548
 C           -2.59514937        2.15204190        1.40656306
 C           -1.60942959        3.15263553        1.03048308
 C           -3.21750686        1.64835085        0.19561840
 C           -1.57447156        3.21808191       -0.42278991
 C           -2.57656247        2.29291260       -0.93610539
 C            0.81916302        3.44254539       -0.35099054
 C            1.97815357        2.66343505       -0.76505970
 C           -0.35826153        3.34669958       -1.09022605
 C            2.21851631        0.50127520       -1.80438331
 C            1.86848806        1.85894034       -1.88855102
 C            2.18035373       -1.72617250       -2.73842141
 C            1.95864904       -0.36148514       -2.88451489
 C            0.83604862       -3.63100546       -2.41883134
 C            1.29390550       -2.66833177       -3.40970642
 C           -1.37735942       -3.38310263       -1.30804938
 C           -0.60296664       -3.70510339       -2.49264065
 C           -3.14617578       -1.78412233       -0.82777692
 C           -3.36004488       -0.38556451       -1.14776750
 C           -2.50183823       -2.58176991       -1.75286134
 C           -2.29833616        1.57380943       -2.09571706
 C           -2.61077088        0.20568551       -2.16621833
 C           -0.27244913        2.90620582       -2.40952329
 C            0.95969004        2.27635252       -2.85130101
 C           -1.36319495        2.12151049       -2.96398026
 C            1.14924315        0.05600273       -3.93999705
 C            0.63403931        1.40480125       -3.95407467
 C           -0.81822615        1.31732456       -4.03363912
 C            0.12973923       -2.16084305       -4.11366538
 C           -1.04288979       -2.81716067       -3.55889614
 C           -2.12361065       -2.00036187       -3.02849078
 C           -2.05595940       -0.61294247       -3.16273427
 C            0.06419804       -0.80245659       -4.38608136
 C           -1.16536624       -0.08453758       -4.09396687
