   70
C70 / DATE: 7/ 1/2024 / Origin: Program Fullerene / C70 from database
 C            1.07111686       -0.08435410        4.77162065
 C            2.34037331       -0.47601473        4.19541019
 C            2.22492856       -1.86283508        3.77465013
 C            0.21417670       -1.25910178        4.76432831
 C            0.82278155       -2.22457888        3.87178802
 C           -1.12622789       -0.80937626        4.48278992
 C            0.32474059        0.98999525        4.14027164
 C           -1.07084732        0.62834545        4.24664314
 C            0.79154311        1.53535488        2.94509749
 C            2.83950375        0.27295089        3.06290843
 C            2.14262853        1.38584264        2.60607849
 C            2.88577253       -1.99656704        2.48778945
 C            3.33127919       -0.67416605        2.07672179
 C            2.31109951       -2.82354631        1.54145501
 C            0.15678979       -2.63858845        2.71467057
 C            0.91635414       -3.21935954        1.70353010
 C           -1.82521803       -1.38442034        3.35401218
 C           -1.13293291       -2.16630736        2.42363757
 C           -1.94738361        0.90464698        3.12612430
 C           -2.67654778       -0.32214598        2.86537019
 C           -0.12362411        2.01611004        1.99177404
 C           -1.46889073        1.63232847        2.03772739
 C            0.34432120        2.70967753        0.87536477
 C            2.59601824        1.94381417        1.42351151
 C            1.71726083        2.80931676        0.67340317
 C            3.28768158       -0.29750628        0.73073838
 C            3.24969993        1.06602286        0.46183464
 C            2.49627751       -2.50413214        0.14292345
 C            2.80306179       -1.19468567       -0.23051289
 C            0.35459349       -3.36915401        0.37496506
 C            1.45219818       -3.21388834       -0.56471308
 C           -1.65465498       -2.27595194        1.12464069
 C           -0.87656751       -2.79083992        0.08304499
 C           -3.24407030       -0.47555136        1.61843418
 C           -2.84705029       -1.62485906        0.82413669
 C           -2.21337111        1.61126660        0.85583048
 C           -3.21709165        0.65806457        0.71580569
 C           -0.51094599        2.94479099       -0.20389588
 C           -1.71729572        2.23978038       -0.28665940
 C            0.02190929        3.54683088       -1.34262959
 C            2.23232606        2.81456594       -0.68130244
 C            2.88767824        1.53105082       -0.86174751
 C            1.40320412        3.26595205       -1.68591474
 C            2.40338598       -0.73899315       -1.49727819
 C            2.36710059        0.62908130       -1.78452445
 C            1.15939157       -2.82387531       -1.85430623
 C            1.81023469       -1.63572028       -2.38016092
 C           -1.19853766       -2.51478505       -1.25569342
 C           -0.23240507       -2.72975333       -2.23987227
 C           -3.15047073       -1.29539774       -0.55374370
 C           -3.48914261        0.12097540       -0.59626059
 C           -2.37175478       -1.81997818       -1.57911126
 C           -2.31491155        1.98639427       -1.53412487
 C           -3.10760088        0.84506930       -1.71227142
 C           -0.72204351        3.51665606       -2.58594183
 C           -1.93494714        2.73264575       -2.64881044
 C            1.34452737        2.49576164       -2.90875269
 C            1.58570749        1.11963674       -2.84301157
 C            0.18016139        2.99659915       -3.60646116
 C            0.96658605       -1.13385302       -3.44762024
 C           -0.25329445       -1.93395125       -3.44753899
 C            0.88238805        0.23612247       -3.67721309
 C           -2.50763533       -1.23000118       -2.83961651
 C           -3.01402873        0.13058688       -2.90123415
 C           -1.44266315       -1.33979994       -3.82449768
 C           -1.94674908        2.10878809       -3.96051892
 C           -0.57176579        2.08584277       -4.43308140
 C           -0.16205308        0.69704895       -4.48378945
 C           -2.46396070        0.76179458       -4.08090430
 C           -1.38211763       -0.08567245       -4.55531744
