   70
C70 / DATE: 7/ 1/2024 / Origin: Program Fullerene / C70 from database
 C            1.58896331        0.23786727        5.22683219
 C            0.76178867       -0.95147982        5.14511844
 C            1.50425254       -1.94233347        4.39151557
 C            2.67368681        0.08791991        4.26865718
 C            2.65820992       -1.27757381        3.80131436
 C            2.54909512        1.15578900        3.29354317
 C            0.78428425        1.36423638        4.79393152
 C            1.55328052        2.08548507        3.80177704
 C           -0.55555964       -0.55505553        4.67169958
 C           -0.52794971        0.87303159        4.40519222
 C           -1.23608638       -1.38271278        3.79333720
 C            0.82196029       -2.66076809        3.33019815
 C           -0.55216157       -2.52368763        3.19159249
 C            2.61400732       -1.51825515        2.37401258
 C            1.65030126       -2.57404426        2.14006600
 C            2.56554181        0.86990206        1.92265061
 C            2.65336509       -0.45636595        1.47101707
 C            2.13568962        1.86440044        1.03622253
 C            0.84683663        2.82970464        2.87670965
 C            1.36934373        2.91482591        1.53012656
 C           -1.10148511        1.38188754        3.23533550
 C           -0.57784833        2.56537323        2.72722618
 C           -2.06023586       -0.77957830        2.76113969
 C           -1.84722111        0.54404096        2.39157333
 C           -1.13439932       -2.72508018        1.87960561
 C           -2.21902061       -1.77558929        1.72775362
 C            1.05173527       -2.62971412        0.88646406
 C           -0.30600237       -2.94036174        0.78063846
 C            2.32930520       -0.73597316        0.14446791
 C            1.64756012       -1.91683126       -0.15332902
 C            2.07706735        1.59850522       -0.33203121
 C            2.31319015        0.29854931       -0.78099892
 C            1.41024154        2.50144819       -1.16881821
 C            0.27639020        3.40673752        0.72156710
 C           -0.94467375        2.98908327        1.39419783
 C            0.34239950        3.23778937       -0.65159453
 C           -2.16127092        0.94475504        1.08008484
 C           -1.87064578        2.25196293        0.66879747
 C           -2.51594019       -1.37162685        0.43990515
 C           -2.61460763       -0.00845528        0.14525244
 C           -0.88877452       -2.84724966       -0.48128927
 C           -2.13913688       -2.23115599       -0.57954709
 C            1.16250947       -2.10776748       -1.44329145
 C           -0.04280749       -2.79545677       -1.58458337
 C            2.12395083       -0.00505532       -2.12820627
 C            1.59664874       -1.25898144       -2.46368087
 C            1.48625221        2.30875139       -2.54431877
 C            2.03583790        1.05796498       -3.02374457
 C            0.31680501        2.59646717       -3.36275388
 C           -0.86983572        3.21215363       -1.33078196
 C           -2.00848956        2.59580762       -0.66992101
 C           -0.89198861        2.82855681       -2.72703050
 C           -2.87211398        0.36464814       -1.18439569
 C           -2.59907456        1.65991910       -1.59969931
 C           -1.98477557        1.88145770       -2.90354808
 C           -2.67022468       -1.99423662       -1.83515720
 C           -3.01913077       -0.62354971       -2.16232843
 C           -0.61116486       -2.93590468       -2.84487638
 C           -2.00710178       -2.57635442       -2.98719886
 C            1.23532062       -1.55210983       -3.77849135
 C            0.09509833       -2.41866759       -4.00133833
 C            1.51781360        0.85002443       -4.36058024
 C            0.34009838        1.69346846       -4.49650952
 C            1.14335700       -0.48828696       -4.75799058
 C           -1.84203849        0.80915162       -3.78234326
 C           -2.54981868       -0.36372792       -3.51832918
 C           -2.11081910       -1.63055960       -4.08152986
 C           -0.86429365       -1.68424318       -4.81579417
 C           -0.79485768        0.81407679       -4.71153421
 C           -0.24063344       -0.43694888       -5.20195774
