   70
C70 / DATE: 7/ 1/2024 / Origin: Program Fullerene / C70 from database
 C            1.62853845        0.04790404        4.45766486
 C            0.80833893       -1.13870136        4.30643466
 C            1.32608708       -1.91404009        3.19000568
 C            2.64702714        0.01081975        3.42687537
 C            2.51067826       -1.23685336        2.69648150
 C            2.57059394        1.24809551        2.66943234
 C            0.78361313        1.19887964        4.19578836
 C            1.38521904        1.95840833        3.11521630
 C           -0.57559008       -0.71118404        4.25846289
 C           -0.57743352        0.72524042        4.02495736
 C           -1.46151261       -1.49037001        3.53746148
 C            0.42084974       -2.45479640        2.27841443
 C           -0.92507533       -2.50145201        2.63564094
 C            0.77453225       -2.54973106        0.92732956
 C            2.73670834       -1.20342663        1.33010916
 C            2.01619743       -2.05805736        0.49804833
 C            2.83120901        1.18378211        1.30339933
 C            3.25815955       -0.03523824        0.78468488
 C            2.20282582        2.09042869        0.44223923
 C            0.55590134        2.50774103        2.14948678
 C            1.10683602        2.82029764        0.90799776
 C           -1.33110457        1.24633688        2.97390248
 C           -0.82742848        2.33353920        2.26021513
 C           -2.53631845       -0.83364199        2.82138146
 C           -2.38768834        0.49847975        2.43909784
 C           -1.92850071       -2.73420261        1.61518192
 C           -3.01945412       -1.79710829        1.85579116
 C           -0.16732877       -2.99604939       -0.00805849
 C           -1.52946351       -2.99516999        0.30954931
 C            0.22001794       -3.19513713       -1.32953419
 C            2.36987969       -2.11018249       -0.85341310
 C            1.52895715       -2.74088580       -1.76527538
 C            3.68670655       -0.07099928       -0.52837367
 C            3.35756078       -1.24201293       -1.31970609
 C            2.47025234        2.01185831       -0.93294085
 C            3.42733698        1.08744196       -1.35982512
 C            1.60161474        2.60990827       -1.86219622
 C            0.35987302        3.57640794        0.01974605
 C            0.52992042        3.36385376       -1.40182261
 C           -1.65919045        2.97111699        1.35288268
 C           -1.06095855        3.73245341        0.27075576
 C           -3.09632624        0.97968962        1.32881420
 C           -2.78435806        2.23457441        0.80871947
 C           -3.76108403       -1.34027838        0.78027826
 C           -3.78379921        0.08694863        0.50133647
 C           -2.47504565       -2.87538578       -0.70789046
 C           -3.63850414       -2.03594758       -0.48729818
 C           -0.72251771       -2.90272645       -2.39887385
 C           -2.03771449       -2.63283328       -2.06835914
 C            1.37399437       -2.19730790       -3.10954565
 C           -0.04875164       -2.00937123       -3.32099386
 C            3.35631034       -0.82660313       -2.71183049
 C            3.44469492        0.62659095       -2.73555718
 C            2.25263883       -1.22463742       -3.56377966
 C            1.46178980        2.06234661       -3.13691280
 C            2.43574848        1.11944671       -3.64151270
 C            1.70666274       -0.02216382       -4.17019550
 C           -0.55072679       -0.72239461       -3.51746227
 C            0.14320499        1.61289870       -3.55370974
 C            0.28353997        0.25499467       -4.03414626
 C           -0.78461673        3.08944870       -1.96181436
 C           -1.76865090        3.39972407       -0.95441019
 C           -2.75818911        2.40009023       -0.63670421
 C           -0.94283511        1.95628627       -2.75436161
 C           -3.69419079        0.26067929       -0.94145985
 C           -3.66948812       -1.04548886       -1.55185925
 C           -2.59712799       -1.35284134       -2.46844471
 C           -1.72994836       -0.34343712       -2.87711354
 C           -2.87603632        1.26868252       -1.43511021
 C           -1.86706063        0.96526233       -2.37329197
