   70
C70 / DATE: 7/ 1/2024 / Origin: Program Fullerene / C70 from database
 C            1.26080365       -0.13051839        4.35018309
 C            2.57018257       -0.51983646        3.88440418
 C            2.54479034       -1.94509494        3.59749552
 C            0.41611093       -1.31605447        4.35629580
 C            1.19705525       -2.42976960        3.85415285
 C           -0.82907603       -0.97148799        3.69408605
 C            0.55187159        0.91332893        3.63118236
 C           -0.81299339        0.46180315        3.46026695
 C            1.16495496        1.58522400        2.57378255
 C            3.10827241        0.15325568        2.72354118
 C            2.49909354        1.30471822        2.23466648
 C            3.14424579       -2.15211429        2.28504198
 C            3.52527164       -0.85351297        1.76220951
 C            2.59081916       -3.08812323        1.42733277
 C            0.61295353       -3.30732780        2.95107605
 C            1.41917062       -3.83073276        1.86129840
 C           -1.34633807       -1.80576788        2.70260262
 C           -0.71519583       -3.02105928        2.42023059
 C           -2.22300709       -1.25800758        1.75955183
 C           -1.54249499        0.95085924        2.39084683
 C           -2.48533459        0.11477287        1.81249558
 C            0.34856840        2.27052419        1.66452470
 C           -1.02926022        2.00375926        1.63235388
 C            0.93655769        3.04740168        0.66551272
 C            2.98462965        1.76660972        1.01985098
 C            2.24680064        2.77502730        0.29297217
 C            3.38077612       -0.56208867        0.40551048
 C            3.44512028        0.78024615        0.05229970
 C            2.40816916       -2.74529467        0.02571916
 C            2.68662371       -1.45130415       -0.42567007
 C            0.55330726       -4.00951591        0.71157432
 C           -0.77208825       -3.54862280        1.06616226
 C            1.19632191       -3.40236321       -0.43308121
 C           -2.46441436       -1.95875113        0.57302423
 C           -1.50248522       -2.84668213        0.11915110
 C           -3.36379466       -1.45158120       -0.35275238
 C           -3.38633405        0.67608226        0.92234252
 C           -3.98470031       -0.17185885       -0.08612765
 C           -1.83603412        2.56445668        0.63502048
 C           -3.03828099        1.94120484        0.29753622
 C            0.13164587        3.75126343       -0.22208460
 C           -1.28989778        3.47080852       -0.26593998
 C            0.59138449        3.92693234       -1.59055802
 C            2.56053837        2.58482678       -1.11352254
 C            2.98295105        1.20402180       -1.25217805
 C            1.69908643        3.11380570       -2.05879210
 C            2.02487633       -0.98110037       -1.57343269
 C            2.21295834        0.33607796       -2.01361142
 C            0.40865805       -2.73327849       -1.35371744
 C           -0.97565027       -2.66445419       -1.16395427
 C            1.01700477       -1.76792894       -2.13884426
 C           -2.99709313       -1.48631274       -1.75931176
 C           -1.74723861       -1.99813857       -2.12392362
 C           -4.03843196        0.57403131       -1.33051194
 C           -3.42968736        1.87099331       -1.10273732
 C           -3.50732565       -0.26814170       -2.38115508
 C           -1.69608272        3.40919570       -1.66384246
 C           -0.53488470        3.70450577       -2.47964658
 C           -2.58038916        2.41083750       -2.06433847
 C            1.18428856        2.24004824       -3.10080213
 C            1.40791017        0.86113125       -3.02963774
 C           -0.12983823        2.74216583       -3.48277849
 C            0.32151649       -1.31640869       -3.24694238
 C           -1.11664238       -1.52066418       -3.27409955
 C            0.59569004        0.00709125       -3.76484876
 C           -2.78674302        0.32910123       -3.40323075
 C           -2.35053911        1.71482179       -3.25965192
 C           -1.07698836        1.84952307       -3.96016911
 C           -1.70301716       -0.41557683       -4.01006125
 C           -0.63869798        0.51901811       -4.33434210
