   70
C70 / DATE: 7/ 1/2024 / Origin: Program Fullerene / C70 from database
 C            1.57311317        0.02725641        4.52497986
 C            0.76601517       -1.16145235        4.31678946
 C            1.40072932       -1.96520566        3.28520725
 C            2.65185306        0.00287559        3.55539288
 C            2.61370493       -1.27676563        2.87762621
 C            2.56384343        1.20119001        2.74211723
 C            0.74346912        1.17867662        4.22624441
 C            1.40446927        1.95327518        3.19069123
 C           -0.60589675       -0.73824887        4.11563496
 C           -0.60519566        0.70908217        3.96648194
 C           -1.40011981       -1.49152086        3.26940446
 C            0.60367458       -2.56298401        2.30561372
 C           -0.78117479       -2.53181971        2.45811873
 C            1.15093298       -2.81196047        1.04023572
 C            2.95363186       -1.31425365        1.53702397
 C            2.44744870       -2.35582255        0.77288227
 C            2.79993016        1.08136425        1.37397876
 C            3.30663651       -0.12585182        0.89239113
 C            2.15044297        1.94985802        0.48800921
 C            0.61459478        2.56781290        2.23113882
 C            1.17490824        2.82272938        0.98135293
 C           -1.30306576        1.29466153        2.91244496
 C           -0.77309202        2.44601291        2.33375274
 C           -2.36894596       -0.81346907        2.42826282
 C           -2.24546791        0.54992556        2.19471615
 C           -1.63085306       -2.73088309        1.30214213
 C           -2.64942931       -1.68884909        1.31116243
 C            0.32241997       -3.23880444       -0.01036888
 C           -1.06551476       -3.10265031        0.09015850
 C            0.87846962       -3.54245476       -1.25195875
 C            3.03724581       -2.59178581       -0.46016505
 C            2.28147437       -3.26854955       -1.48976279
 C            3.69745113       -0.19077953       -0.43839655
 C            3.74931318       -1.49323925       -1.08461480
 C            2.24742889        1.73164481       -0.89268771
 C            3.10041906        0.74386049       -1.37492632
 C            1.24634769        2.21661614       -1.73505061
 C            0.46468940        3.62718813        0.09627549
 C            0.50985657        3.31950314       -1.32134199
 C           -1.56744042        3.15985650        1.44934740
 C           -0.90816706        3.95600769        0.43199015
 C           -2.80678558        1.09269619        1.03591627
 C           -2.67241993        2.46309213        0.81625743
 C           -3.05212552       -1.13832959        0.10060996
 C           -3.20282186        0.24888528       -0.01301978
 C           -1.82603283       -2.91317642       -1.06244126
 C           -2.87677091       -1.90661563       -1.04773901
 C            0.16760660       -3.15518476       -2.45672566
 C           -1.18106157       -2.86103774       -2.36451406
 C            2.37625110       -2.47191417       -2.70583538
 C            3.23506809       -1.34306449       -2.43404852
 C            2.68196126       -0.00916803       -2.54227663
 C            1.02419432       -2.22069003       -3.15928859
 C            0.79645427        1.42459335       -2.79846295
 C            1.38680085        0.18116212       -3.01537741
 C            0.57241186       -0.91429909       -3.34990636
 C           -0.42413280        1.69243111       -3.40683836
 C           -0.80848485        3.56942493       -1.88112565
 C           -1.70276556        3.88342872       -0.77951951
 C           -2.83789091        3.01220966       -0.51870904
 C           -1.27336785        2.75972022       -2.90573178
 C           -3.57215334        0.79321083       -1.24445876
 C           -3.29428194        2.18946981       -1.53578400
 C           -2.63089661        2.24471639       -2.82891419
 C           -2.90331782       -1.27701913       -2.35572641
 C           -1.69129382       -1.68451540       -3.05145003
 C           -0.80015822       -0.71514192       -3.52000453
 C           -1.27031728        0.57115600       -3.76569138
 C           -3.33049258        0.03569181       -2.46234123
 C           -2.63332725        0.90622092       -3.38914769
