   70
C70 / DATE: 7/ 1/2024 / Origin: Program Fullerene / C70 from database
 C            1.35687320       -0.03841550        4.92626739
 C            0.58021052       -1.21136299        4.56201197
 C            1.47173572       -2.12519176        3.89439649
 C            2.60430375       -0.09218149        4.18267641
 C            2.72392427       -1.42068360        3.63794182
 C            2.62318844        1.03053235        3.26737031
 C            0.62589833        1.13012126        4.47223767
 C            1.48590182        1.88217949        3.58460956
 C           -0.59970628       -0.76095280        3.85130240
 C           -0.64541291        0.68770788        3.94578143
 C           -0.96734408       -1.35546201        2.64127242
 C            1.04902113       -2.70679806        2.63609613
 C           -0.18598047       -2.37325953        2.07131445
 C            3.00930494       -1.56677938        2.22441751
 C            2.21088631       -2.68658111        1.77546338
 C            2.96692981        0.84799241        1.92488513
 C            3.09484989       -0.44690147        1.39116858
 C            2.72332109        1.91668496        1.06955315
 C            0.89384862        2.58856316        2.54397942
 C            1.68977338        2.86926951        1.43729709
 C           -1.17567520        1.38300150        2.87037047
 C           -0.49322684        2.49547206        2.37109748
 C           -1.86786167       -0.66875948        1.83243213
 C           -2.04330571        0.70531526        2.02227478
 C           -2.30023976       -1.25804666        0.65104874
 C           -0.37868247       -2.71104102        0.72290767
 C           -1.46770326       -2.18040694        0.01796386
 C            1.98827958       -2.80560829        0.42094499
 C            0.72066038       -3.20403044        0.01431261
 C            2.95832811       -0.66272210        0.01065340
 C            2.70204982       -1.96665988       -0.42687087
 C            2.62612167        1.69368592       -0.35812181
 C            2.67579660        0.40393641       -0.84955182
 C            1.07939659        3.36214380        0.21670639
 C            1.62680932        2.59977608       -0.89423070
 C           -1.09002814        3.21074819        1.33704498
 C           -0.27102588        3.66383568        0.22147012
 C           -2.77730239        1.43954103        1.09690467
 C           -2.34880531        2.72909628        0.78308979
 C           -3.31993637       -0.64010708       -0.06377466
 C           -3.60564603        0.75736419        0.21258046
 C           -3.39852053       -0.83531175       -1.49916059
 C           -1.56025481       -2.36678412       -1.36833496
 C           -2.36214682       -1.51293049       -2.13711661
 C            0.57259238       -3.56550628       -1.31533129
 C           -0.64883562       -3.20005259       -2.00641976
 C            2.60232940       -2.21698553       -1.79045482
 C            1.68352596       -3.26492299       -2.20183559
 C            2.13003444        0.14887614       -2.10521531
 C            2.38348419       -1.09036804       -2.67777999
 C            0.77875386        2.15231946       -1.90754388
 C            1.08670246        0.96248750       -2.58620606
 C           -1.03665342        3.46001693       -0.99337844
 C           -2.40798614        3.19457948       -0.59255963
 C           -0.48279403        2.73920992       -2.05046702
 C           -3.99354257        1.39161903       -1.03478377
 C           -3.93567573        0.38426061       -2.08037940
 C           -3.25593903        2.55853150       -1.48735649
 C           -1.32584647        2.30737239       -3.06403046
 C           -3.25236022        0.96437773       -3.21304863
 C           -2.76212702        2.27601566       -2.82340771
 C           -1.92134764       -1.08491709       -3.40325686
 C            0.26705430        0.52801745       -3.64313575
 C           -2.13911114        0.23546893       -3.77529535
 C           -0.98343287        1.11471494       -3.80813915
 C           -0.30207315       -2.90479902       -3.37991845
 C            1.14483467       -2.90598486       -3.49633054
 C            1.56326327       -1.54343545       -3.77786182
 C           -0.77366564       -1.65748074       -3.93257925
 C            0.38020739       -0.78340455       -4.09796781
