   70
C70 / DATE: 7/ 1/2024 / Origin: Program Fullerene / C70 from database
 C            1.22873588       -0.15649562        4.34206454
 C            2.48495684       -0.49945864        3.71868307
 C            2.45078315       -1.91798118        3.39975195
 C            0.39601103       -1.35029180        4.35906874
 C            1.10781403       -2.39911052        3.65592417
 C           -0.92838684       -0.96429020        3.90467076
 C            0.43950685        0.91449658        3.76736975
 C           -0.94096932        0.48671806        3.78326809
 C            0.89423071        1.60359956        2.64896270
 C            2.87903994        0.20837192        2.51611410
 C            2.06239611        1.19635169        1.98552683
 C            3.01518961       -2.07899941        2.07290372
 C            3.44558568       -0.76645793        1.61004856
 C            2.41346081       -2.94206458        1.15891926
 C            0.44940303       -3.11745305        2.66778845
 C            1.13739926       -3.44805980        1.42587608
 C           -1.58837693       -1.72704558        2.94197831
 C           -0.93627503       -2.80577580        2.34030931
 C           -2.66452365       -1.14632608        2.27751406
 C           -1.82165533        1.06921231        2.88090111
 C           -2.86826364        0.28581287        2.40641571
 C           -0.01925435        2.40834197        1.96994414
 C           -1.39249804        2.16083246        2.11646947
 C            0.44635260        3.16712085        0.90076035
 C            2.25878786        1.56332649        0.65675958
 C            1.62170543        2.70271352        0.19003069
 C            3.42932721       -0.52073999        0.23968755
 C            2.79492895        0.63709642       -0.24841362
 C            2.81999056       -2.84385507       -0.16803316
 C            3.52192003       -1.63934823       -0.57656560
 C            1.86059776       -3.12638612       -1.21951479
 C            0.14068849       -3.47937597        0.36180440
 C           -1.12355591       -3.04950443        0.91613908
 C            0.50657040       -3.07648656       -0.91349954
 C           -2.90564221       -1.48454676        0.88343372
 C           -1.93951586       -2.19794574        0.18721034
 C           -3.61788898        0.72451882        1.24580959
 C           -3.54677994       -0.34530800        0.25798195
 C           -2.30989208        2.78399771        1.26864614
 C           -3.47651421        2.03739965        0.82300960
 C           -0.48207873        3.71129115       -0.07164854
 C           -1.84264811        3.59137674        0.15293165
 C            1.37839933        2.85462568       -1.22909485
 C            0.06270184        3.45484080       -1.39912998
 C            2.58624151        0.80655998       -1.63105230
 C            1.78729449        1.85561348       -2.10023533
 C            3.34369303       -1.49684030       -2.00056370
 C            2.34773904       -2.47697525       -2.41387153
 C            2.91984007       -0.21547686       -2.51773724
 C            1.40109422       -1.78800012       -3.25800054
 C            2.01209972       -0.51653970       -3.60481338
 C           -0.34726716       -2.24351276       -1.65515774
 C           -1.53582278       -1.75720198       -1.07820844
 C            0.04671163       -1.80998049       -2.93135420
 C           -3.24645647       -0.03534657       -1.06248532
 C           -2.32121716       -0.81800233       -1.75971309
 C           -3.67727551        2.32757921       -0.58298930
 C           -2.72053191        3.34941534       -0.97427137
 C           -3.56378332        1.23715347       -1.53409449
 C           -0.76244218        3.01770768       -2.43703021
 C           -2.14394179        2.94529787       -2.24545905
 C           -2.86882658        1.76165336       -2.69171934
 C            1.14174756        1.74440289       -3.33291096
 C            1.18604497        0.48954292       -4.06924224
 C           -0.19472529        2.30144554       -3.48841003
 C           -0.78916037       -0.97645500       -3.66596114
 C           -2.02170407       -0.49343497       -3.07734284
 C           -2.23212108        0.87193444       -3.53923294
 C           -0.18418952        0.13340617       -4.38606105
 C           -1.00480528        1.30731582       -4.17085964
