   70
C70 / DATE: 7/ 1/2024 / Origin: Program Fullerene / C70 from database
 C            1.17219316       -0.06185619        4.62224767
 C            2.49939730       -0.23154929        4.06220546
 C            2.56933980       -1.57222183        3.51114159
 C            0.39654909       -1.24945453        4.29284408
 C            1.21766148       -2.10291289        3.46806686
 C           -0.87483522       -0.81510577        3.77068626
 C            0.38779562        1.09788171        4.23699138
 C           -0.94507749        0.63201031        3.90065742
 C            0.96609868        2.08924791        3.45976345
 C            2.95621370        0.68855919        3.03552524
 C            2.24195477        1.85268282        2.79131946
 C            3.31323630       -1.50444879        2.26779197
 C            3.43179947       -0.09973824        1.90900483
 C            2.97147865       -2.40050188        1.26911989
 C            0.72878630       -2.56541145        2.24734403
 C            1.66546196       -3.04187942        1.33814005
 C           -1.38123369       -1.39930981        2.61554980
 C           -0.53024842       -2.14478229        1.77961989
 C           -2.51349267       -0.80157463        2.08042367
 C           -1.72306103        1.33523039        2.98155745
 C           -2.72331751        0.61575480        2.32785192
 C            0.12574967        2.83424920        2.54324083
 C           -1.22521576        2.51473977        2.40517296
 C            2.11689084        2.32615970        1.42535417
 C            0.90278845        3.10917787        1.34402264
 C            3.13123152        0.29181337        0.60162651
 C            2.43659200        1.48617050        0.37028135
 C            3.16176505       -2.00255627       -0.11212345
 C            3.24275605       -0.65032642       -0.42518638
 C            1.25842182       -3.34266220       -0.01448946
 C            2.29946340       -2.85615680       -0.90655249
 C           -0.90654679       -2.40955629        0.44679377
 C           -0.06476341       -3.16289697       -0.38604201
 C           -2.89619846       -1.07323524        0.71417998
 C           -2.04892042       -1.80516293       -0.09512720
 C           -3.39604803        1.17622370        1.17356487
 C           -3.50981992        0.12370089        0.17017893
 C           -1.90018613        3.09946514        1.33420601
 C           -3.08568525        2.46623869        0.78389430
 C            0.22405203        3.20637013        0.13423013
 C           -1.11071978        3.58245399        0.21233656
 C            1.86379039        1.72918468       -0.87568443
 C            0.67056738        2.45946515       -0.97046866
 C            2.97973766       -0.26282818       -1.73344509
 C            2.32935073        1.01332436       -1.96739426
 C            1.92955236       -2.45231665       -2.18360812
 C            2.40725569       -1.22857480       -2.66259297
 C           -0.34186968       -3.24867606       -1.74870177
 C            0.73676853       -2.96513426       -2.68568354
 C           -2.19975261       -1.70478251       -1.47467095
 C           -1.53666664       -2.62435438       -2.27421466
 C           -3.32592509        0.41638152       -1.18051865
 C           -2.81083531       -0.56853021       -2.03052294
 C           -3.15348320        2.80885611       -0.62335597
 C           -1.93599124        3.53001323       -0.96790175
 C           -3.30786128        1.74791265       -1.60192178
 C           -0.10485337        2.38737610       -2.14326308
 C           -1.39503483        2.91764800       -2.16084702
 C           -2.46532037        2.11916859       -2.72462217
 C            1.49718510        0.88544061       -3.14585334
 C            1.64733103       -0.47414676       -3.65024762
 C            0.25244617        1.50450604       -3.16837677
 C            0.14939588       -2.39022432       -3.88077892
 C           -1.28772732       -2.32960918       -3.67144344
 C            0.59138429       -1.08032501       -4.31677892
 C           -2.55909625       -0.21467264       -3.35766434
 C           -2.12688517        1.13859588       -3.63559431
 C           -0.73548563        1.02393823       -4.02947439
 C           -1.75701418       -1.07398066       -4.20592410
 C           -0.59327016       -0.29848549       -4.61586045
