   70
C70 / DATE: 7/ 1/2024 / Origin: Program Fullerene / C70 from database
 C            1.01425020       -0.06222034        4.66512608
 C            2.28613189       -0.37710933        4.05182660
 C            2.24434155       -1.77193727        3.65427391
 C            0.18150208       -1.25480753        4.59454874
 C            0.85887139       -2.19814058        3.73128258
 C           -1.15539733       -0.83639340        4.24530199
 C            0.23659869        1.03486007        4.12622572
 C           -1.14736574        0.61482005        4.13971629
 C            0.69012679        1.73317224        3.01129265
 C            2.70624328        0.38447983        2.89370024
 C            1.94102225        1.44969837        2.44108485
 C            2.92650315       -1.88982465        2.37832351
 C            3.22705713       -0.54389471        1.90927172
 C            2.43265578       -2.80621538        1.46602936
 C            0.24311763       -2.66440908        2.56792119
 C            1.05961383       -3.26984279        1.61877296
 C           -1.74874210       -1.34966827        3.02688791
 C           -1.01339199       -2.17227226        2.17459356
 C           -1.97973913        0.97353603        3.00497449
 C           -2.50509129       -0.26032851        2.44915976
 C           -0.24032124        2.45781129        2.26293820
 C           -1.53726744        1.95367067        2.11582456
 C            0.24591393        3.35174090        1.31946350
 C            2.21472734        1.94390503        1.17123762
 C            1.58351181        3.12420670        0.80905760
 C            3.07068440       -0.23928387        0.55440199
 C            2.67193930        1.05494943        0.18306259
 C            2.64036636       -2.55731914        0.05468785
 C            2.99343306       -1.28315138       -0.37322871
 C            0.53984201       -3.54280898        0.29582291
 C            1.60175802       -3.27508952       -0.66101837
 C           -1.42446008       -2.28192249        0.83780183
 C           -0.75166611       -3.15339937       -0.02416163
 C           -2.76690842       -0.28438900        1.09196185
 C           -2.39444660       -1.39673702        0.33657314
 C           -2.15784058        2.02346436        0.86345945
 C           -2.92672441        0.92989804        0.44312906
 C           -0.59094831        3.72214707        0.19505748
 C           -1.75562551        3.00463580       -0.05214799
 C            1.62078271        3.55720029       -0.56680284
 C            0.29225949        4.02794281       -0.91738321
 C            2.59225243        1.39243289       -1.17795326
 C            2.03601405        2.60648585       -1.57050698
 C            2.84221100       -0.98979319       -1.71991576
 C            2.66035549        0.38673320       -2.13390343
 C            1.24771884       -2.86255442       -1.94161018
 C            1.97214977       -1.82569300       -2.53801963
 C           -1.10874962       -3.20558345       -1.36518732
 C           -0.05245541       -3.12756375       -2.36486739
 C           -2.76272956       -1.43767364       -1.01379459
 C           -2.22418541       -2.41573501       -1.84081544
 C           -3.48649993        0.90563472       -0.82263520
 C           -3.38148381       -0.32249409       -1.59184583
 C           -2.26294123        2.99894487       -1.35053383
 C           -3.26240957        2.01890174       -1.71534978
 C           -0.03687874        3.50355036       -2.23010799
 C            1.03870335        2.61113732       -2.63187579
 C           -1.34492757        3.12498192       -2.47521641
 C            1.71332600        0.40427835       -3.23890524
 C            1.35555872       -0.96876265       -3.54440323
 C            0.75271370        1.41334953       -3.28853713
 C           -0.58720282       -2.44357295       -3.52608191
 C           -1.96830322       -2.10066976       -3.23616738
 C            0.08091299       -1.25031798       -4.00517264
 C           -3.07903067        0.04320187       -2.97132532
 C           -2.90293599        1.48101923       -3.01657771
 C           -1.59451113        2.00540493       -3.36151492
 C           -0.56584624        1.11085375       -3.65823772
 C           -2.19530047       -0.74474357       -3.69078018
 C           -0.90284275       -0.18272721       -4.06820877
