   70
C70 / DATE: 7/ 1/2024 / Origin: Program Fullerene / C70 from database
 C            1.59191665        0.00731788        4.58535170
 C            0.77180113       -1.15513776        4.31630035
 C            1.38770971       -1.90796694        3.23563279
 C            2.68879764        0.00007137        3.63405983
 C            2.52468518       -1.14048162        2.75967876
 C            2.74186936        1.30953512        3.02684197
 C            0.78052199        1.18126874        4.30900371
 C            1.54090859        2.02966140        3.42798214
 C           -0.58997766       -0.69322377        4.13028201
 C           -0.51689154        0.73325400        3.85607854
 C           -1.41347889       -1.46433899        3.33374008
 C            0.54974011       -2.51320525        2.30385489
 C           -0.81231142       -2.55371021        2.58024544
 C            0.95792656       -2.60581138        0.97184223
 C            2.67210752       -0.95139853        1.39228741
 C            2.04417073       -1.84125842        0.51950657
 C            3.13661492        1.41944200        1.69620426
 C            3.17742652        0.26148178        0.90385281
 C            2.87977691        2.64588889        1.08474665
 C            0.87813030        2.74834596        2.44404820
 C            1.71100770        3.38062931        1.53403442
 C           -1.01822917        1.22515496        2.64705904
 C           -0.38918728        2.30714056        2.01032340
 C           -2.30801451       -0.79218689        2.41288993
 C           -1.98842445        0.48469967        1.96344483
 C           -1.73251240       -2.86759162        1.50892317
 C           -2.71254331       -1.79181448        1.44883292
 C            0.13167383       -3.25346541        0.04907333
 C           -1.24321865       -3.36901550        0.31040992
 C            0.63074466       -3.48900734       -1.22889672
 C            2.37532372       -1.81438076       -0.83827752
 C            1.68477167       -2.63064218       -1.72746663
 C            3.41838583        0.38020230       -0.46198567
 C            2.96547370       -0.66741240       -1.35883591
 C            2.95917513        2.77880143       -0.35932059
 C            3.18308119        1.64946451       -1.12798363
 C            1.13407636        4.05245131        0.40016787
 C            1.93118021        3.71718655       -0.77146874
 C           -0.93009627        2.79754139        0.81151001
 C           -0.24425204        3.77049628        0.07937782
 C           -2.38716279        0.87123499        0.68277013
 C           -1.98702986        2.12083887        0.19472220
 C           -3.15845942       -1.38477046        0.20008517
 C           -3.11220702       -0.02612684       -0.12619087
 C           -2.14897621       -3.39793962       -0.74595000
 C           -3.13713237       -2.33520780       -0.82250152
 C           -0.27566372       -3.73218761       -2.33678896
 C           -1.69689124       -3.69194068       -2.08777460
 C            1.20132678       -2.03448673       -2.96323463
 C            0.02040961       -2.75082806       -3.37045909
 C            2.34542644       -0.03364916       -2.51399640
 C            2.33742513        1.39182859       -2.28623129
 C            1.24092952       -0.65148657       -3.08249195
 C            1.00424365        3.33482600       -1.82276745
 C           -0.31305618        3.74065825       -1.36878221
 C            1.15469699        2.09979141       -2.45605430
 C           -2.39306685        2.54283033       -1.07086851
 C           -1.40990688        3.14333197       -1.94956681
 C           -3.53395816        0.35649648       -1.39542493
 C           -3.17712223        1.66025376       -1.90421319
 C           -3.24175892       -1.92087697       -2.21318225
 C           -2.27605878       -2.69680039       -2.97506292
 C           -1.18227507       -1.99428402       -3.62562997
 C           -3.36171302       -0.57074904       -2.49694216
 C            0.04053016        0.07000205       -3.22196130
 C            0.02952947        1.46146324       -2.99019751
 C           -1.17558584        2.16495103       -2.99184720
 C           -2.42171488        1.45308017       -3.13570467
 C           -1.15462752       -0.60232172       -3.55676006
 C           -2.38001104        0.03408256       -3.38034429
