   70
C70 / DATE: 7/ 1/2024 / Origin: Program Fullerene / C70 from database
 C            1.61654206       -0.07090792        4.44845163
 C            0.78854617       -1.22718445        4.17174621
 C            1.44374131       -2.01320856        3.14453481
 C            2.69037626       -0.05761259        3.47044394
 C            2.54132164       -1.21928976        2.61953637
 C            2.69526394        1.24475718        2.84272989
 C            0.80470634        1.11185891        4.22584147
 C            1.53321152        1.98006086        3.32699192
 C           -0.56080995       -0.76615693        3.90482050
 C           -0.51939370        0.68419414        3.82565883
 C           -1.29727569       -1.45768606        2.95286583
 C            0.63624059       -2.68314479        2.23887808
 C           -0.74618475       -2.62261159        2.41742784
 C            1.12832977       -2.90513688        0.95639882
 C            2.64504970       -1.05307114        1.24072454
 C            2.00661374       -1.97193315        0.39938246
 C            3.00780055        1.33842645        1.49029767
 C            3.09685038        0.16691584        0.72396724
 C            2.69019017        2.53803326        0.85971705
 C            0.81981200        2.74333828        2.40843055
 C            1.54757583        3.28517741        1.35378368
 C           -1.11256522        1.31271944        2.73602289
 C           -0.54811035        2.48996348        2.23019003
 C           -2.23855255       -0.75754085        2.19947945
 C           -2.04619885        0.60752958        1.97014041
 C           -3.07211089       -1.47612896        1.34719773
 C           -1.54953174       -3.43078615        1.62263004
 C           -2.81358532       -2.89254245        1.15362739
 C            0.42101667       -3.76307083        0.12736577
 C           -0.93147059       -4.13526689        0.51318464
 C            0.42128528       -3.52644554       -1.30110890
 C            2.11795140       -1.84290697       -0.99126927
 C            1.28321264       -2.57804531       -1.84247668
 C            3.33454030        0.26434662       -0.64258383
 C            2.88901213       -0.80826167       -1.51597200
 C            2.69207578        2.62488399       -0.58886123
 C            3.08633531        1.52427757       -1.32734111
 C            0.85656993        3.85717616        0.21498189
 C            1.50773473        3.36477431       -0.99289192
 C           -1.25314268        3.20085042        1.26257323
 C           -0.52466631        3.95445087        0.25315492
 C           -2.60096598        1.20333422        0.83571513
 C           -2.37739260        2.55607380        0.60705818
 C           -3.41075150       -0.91064779        0.05320561
 C           -3.04772585        0.40008725       -0.21507241
 C           -2.92664959       -3.17867109       -0.26736971
 C           -1.79001421       -3.98275448       -0.64979044
 C           -0.96373864       -3.52038056       -1.74214330
 C           -3.14669723       -1.92063617       -0.95561143
 C           -1.38729581       -2.46476866       -2.54236249
 C           -2.36280347       -1.57308914       -2.05656903
 C            0.94859184       -2.05946888       -3.09523792
 C           -0.45694645       -2.00885681       -3.46837059
 C            2.51710338       -0.20835736       -2.78547337
 C            2.39728608        1.22469871       -2.56810492
 C            1.58720439       -0.85056975       -3.58564736
 C            0.73613594        2.91546688       -2.06556592
 C            1.20330965        1.87824203       -2.88063392
 C           -1.26163917        3.86364893       -0.99198820
 C           -2.44729858        3.05719929       -0.75269039
 C           -0.59492100        3.32148493       -2.16296904
 C           -2.74766828        0.75673896       -1.53072742
 C           -2.33161441       -0.22576834       -2.43567927
 C           -2.55326767        2.10035528       -1.83909139
 C           -1.55559625        2.46322210       -2.83038820
 C           -0.69370317       -0.76174203       -4.15941119
 C            0.57488679       -0.05621100       -4.25938008
 C            0.34978078        1.31280985       -3.82690170
 C           -1.66005120        0.15157535       -3.59520822
 C           -1.08586534        1.48218913       -3.68426377
