   70
C70 / DATE: 7/ 1/2024 / Origin: Program Fullerene / C70 from database
 C            1.25296472        0.20066893        4.61588599
 C            2.50016539        0.01233803        3.90408154
 C            2.52822168       -1.36022858        3.42756140
 C            0.43421608       -0.98143844        4.39246604
 C            1.19307247       -1.89662078        3.55316859
 C           -0.87400950       -0.53981402        3.93042074
 C            0.44658706        1.35737671        4.29362352
 C           -0.91233792        0.89919695        4.04521662
 C            0.82662853        2.19077432        3.16684426
 C            2.80896205        0.86944678        2.76861104
 C            1.89240721        1.82363000        2.34200803
 C            3.13327180       -1.34955166        2.11613544
 C            3.44983293        0.03142348        1.78030609
 C            2.60828228       -2.15920632        1.11401244
 C            0.57192334       -2.42409989        2.42604066
 C            1.30754225       -2.67076734        1.25609922
 C           -1.40427890       -1.13329044        2.79164203
 C           -0.81029459       -2.30335383        2.33422784
 C           -2.19947786       -0.38752157        1.90868829
 C           -1.43160665        1.66204065        2.92794274
 C           -0.41080080        2.62141156        2.55100820
 C           -2.12479812        1.01034645        1.90791626
 C           -0.37973121        3.02518964        1.23140640
 C            1.85722225        2.18880854        0.99356154
 C            0.84490636        3.04971328        0.56885486
 C            3.40855698        0.39290641        0.43933369
 C            2.63062456        1.49510516        0.04431054
 C            3.11812077       -1.95243498       -0.16288028
 C            3.64207768       -0.63203583       -0.47129166
 C            2.36934308       -2.40308698       -1.31855543
 C            0.62697950       -3.16853988        0.13651064
 C            1.05945629       -2.81866052       -1.14486010
 C           -1.47145922       -3.03676323        1.37057981
 C           -0.67901824       -3.62285327        0.30814778
 C           -2.78086101       -1.04769581        0.82055303
 C           -2.63088813       -2.43570438        0.74648975
 C           -3.17261439       -0.31427497       -0.31074073
 C           -2.30411932        1.69841801        0.70714008
 C           -1.53042939        2.84412178        0.47778393
 C           -2.96356496        1.06746220       -0.35060835
 C           -1.61574951        3.52449140       -0.72719091
 C            0.87932338        3.54650378       -0.72555192
 C           -0.37491563        3.95043346       -1.34826552
 C            2.49690657        1.80008527       -1.32305605
 C            1.65297759        2.83231345       -1.72012505
 C            3.44348954       -0.39241243       -1.87973567
 C            2.67834460       -1.50613716       -2.41671679
 C            2.78503216        0.82822718       -2.27850018
 C            1.58277267       -0.95732654       -3.19438224
 C            1.76078332        0.48023127       -3.25172279
 C            0.12483637       -2.55503935       -2.15082947
 C            0.30607062       -1.45929313       -3.00068091
 C           -1.54820127       -3.75271741       -0.84829329
 C           -2.82089882       -3.13382619       -0.50709558
 C           -1.11178489       -3.18320654       -2.10543540
 C           -3.52339857       -0.96764178       -1.49730582
 C           -3.26746708       -2.38368349       -1.65372587
 C           -2.25610802       -2.51616781       -2.69362147
 C           -0.78474549       -0.66483997       -3.35433238
 C           -3.14170208       -0.36853917       -2.76002197
 C           -2.07037867       -1.19929545       -3.27744337
 C           -3.13363500        1.73952190       -1.56263157
 C           -2.47783250        3.01539710       -1.76861523
 C           -2.97676925        1.00045939       -2.80100181
 C           -0.37579212        3.45799608       -2.71475218
 C            0.78289201        2.60424609       -2.86433818
 C            0.64462527        1.30415111       -3.35053550
 C           -0.63116358        0.72420905       -3.45720926
 C           -1.68263131        2.90374305       -2.98455276
 C           -1.77595535        1.52568067       -3.42197334
