   70
C70 / DATE: 7/ 1/2024 / Origin: Program Fullerene / C70 from database
 C            1.15174667       -0.21507299        4.86239758
 C            2.38340714       -0.38613445        4.11782161
 C            2.25914383       -1.61813057        3.35318538
 C            0.29738198       -1.35105581        4.54941779
 C            0.87140508       -2.01771046        3.39765559
 C           -1.05716984       -0.86461723        4.45811274
 C            0.36343234        0.98876373        4.66578042
 C           -1.02592889        0.58206606        4.63071645
 C            0.80324845        1.97230391        3.78532233
 C            2.80935911        0.65368919        3.19750551
 C            2.06229195        1.81595808        3.06700838
 C            2.85119563       -1.38669762        2.05601510
 C            3.29130681       -0.00871638        2.00187461
 C            2.21961231       -1.88348291        0.92450192
 C            0.16099855       -2.07743157        2.19630279
 C            0.86512008       -2.23081521        0.99556228
 C           -1.80923617       -1.13257455        3.24962669
 C           -1.20368524       -1.75836740        2.15947530
 C           -1.90802422        1.15425691        3.62870692
 C           -2.60856764        0.04587990        2.99963403
 C           -0.14265347        2.62748154        2.89004396
 C           -1.47403917        2.21237655        2.82966051
 C            1.90284002        2.41045719        1.75010493
 C            0.56101004        2.95305869        1.65627053
 C            3.20285187        0.62304728        0.76753543
 C            2.44547468        1.79297289        0.63161723
 C            2.71595034       -1.45279032       -0.30146116
 C            3.31930796       -0.18784378       -0.35451708
 C            2.16934120       -2.00012746       -1.45950998
 C            0.15894770       -2.40196393       -0.19485403
 C            0.86693590       -2.51046638       -1.39219248
 C           -1.84626898       -1.66083689        0.92375237
 C           -1.21665569       -2.15245643       -0.22235678
 C           -3.10928032        0.22713151        1.72211335
 C           -2.94723332       -0.80498231        0.79944020
 C           -2.20475498        2.49353484        1.67846306
 C           -3.19729931        1.52876048        1.24320637
 C           -0.12395972        2.88520626        0.44456751
 C           -1.50844644        2.94628355        0.48239777
 C            1.88885837        2.08683585       -0.61525974
 C            0.52148939        2.37565040       -0.69106461
 C            3.40178772        0.46219495       -1.57488671
 C            2.55437754        1.62589615       -1.74409501
 C            2.73013261       -1.63685199       -2.68324944
 C            3.32526412       -0.32454773       -2.78437805
 C            1.99722803       -1.84692529       -3.91245092
 C            0.17105780       -2.84929025       -2.54754424
 C            0.72456700       -2.53041151       -3.84893364
 C           -1.91653797       -2.19180793       -1.43475173
 C           -1.25234945       -2.57236746       -2.60396576
 C           -3.57162468       -0.67677319       -0.43416200
 C           -3.11014369       -1.48115148       -1.54935487
 C           -3.40998393        1.73796596       -0.17505206
 C           -2.27694454        2.51278958       -0.66628669
 C           -3.84790836        0.66439525       -0.93351617
 C           -0.22675779        1.95656583       -1.80865343
 C           -1.61890407        2.09439977       -1.81923141
 C            1.81444951        1.43958490       -2.97580450
 C            2.52848650        0.42939359       -3.73446024
 C            1.76496874       -0.53116800       -4.49785191
 C            0.42349987        1.40929912       -2.92452574
 C           -0.24185039       -1.68694575       -4.52487418
 C           -1.50791791       -1.83575540       -3.84015262
 C            0.33234497       -0.35783970       -4.58548066
 C           -0.29817114        0.66363509       -3.87136113
 C           -3.34620229       -0.70627340       -2.75175259
 C           -3.53321072        0.67154085       -2.34604446
 C           -2.36201425        1.41166829       -2.77743459
 C           -2.32393158       -0.71907134       -3.77230218
 C           -1.68316571        0.59441094       -3.76202383
