   70
C70 / DATE: 7/ 1/2024 / Origin: Program Fullerene / C70 from database
 C            1.17391411        0.10390859        4.36097552
 C            2.42889726       -0.19966334        3.71139388
 C            2.42402451       -1.61769399        3.40273936
 C            0.34789017       -1.09488313        4.32446091
 C            1.06264542       -2.09814573        3.57016527
 C           -0.97298939       -0.70799207        3.87877175
 C            0.37631344        1.19228516        3.83903232
 C           -1.00367433        0.74316033        3.78864341
 C            0.85475987        1.96881568        2.78992796
 C            2.76923006        0.51008017        2.49202914
 C            1.92342837        1.50511268        2.00768129
 C            3.06071416       -1.78855423        2.11077307
 C            3.30610294       -0.46267601        1.55849351
 C            2.57013560       -2.77421327        1.26883433
 C            0.43653752       -2.71845525        2.49209796
 C            1.24293078       -3.31606795        1.52334907
 C           -1.61019273       -1.44749534        2.89149508
 C           -0.91218603       -2.45537354        2.20709312
 C           -2.74467806       -0.88101049        2.31907302
 C           -1.87082104        1.34869900        2.87804053
 C           -2.85751828        0.56930081        2.27249691
 C           -0.04534327        2.86363710        2.23095319
 C           -1.46416851        2.53276152        2.26148593
 C            0.24245373        3.45659190        0.94206578
 C            1.99026383        1.84080415        0.65198250
 C            1.30259652        2.96389727        0.19047384
 C            3.12720924       -0.25337504        0.19341244
 C            2.62658026        0.97582797       -0.25132555
 C            2.69118485       -2.58752071       -0.16314249
 C            3.10215725       -1.35631161       -0.66368447
 C            0.67674305       -3.72184261        0.24803738
 C            1.56537273       -3.25124765       -0.80012263
 C           -1.51556096       -3.09799228        1.12446644
 C           -0.68989823       -3.64344679        0.06073676
 C           -3.29504101       -1.41733855        1.08823910
 C           -2.69585764       -2.52242628        0.50388977
 C           -3.36430932        0.93037109        0.95588089
 C           -3.71811884       -0.29620072        0.26317597
 C           -2.02671128        2.91016229        0.97381574
 C           -1.03240932        3.71566482        0.29149288
 C           -2.77625567        1.98219320        0.25873959
 C           -1.06661405        3.79670883       -1.08946442
 C            1.38261842        3.32132926       -1.14974410
 C            0.19810631        3.85967895       -1.79802450
 C            2.61636225        1.25255063       -1.62128253
 C            2.02967349        2.42643705       -2.08792512
 C            2.93686633       -1.14156928       -2.02509041
 C            2.85019138        0.21696516       -2.52060429
 C            1.05084278       -2.69390146       -1.96885565
 C            1.92713201       -1.92262317       -2.72432162
 C           -1.19901791       -3.13556987       -1.20074288
 C           -2.51059645       -2.57022075       -0.93911005
 C           -0.33452737       -2.49928901       -2.09342376
 C           -3.57769760       -0.35874437       -1.11401678
 C           -2.96276209       -1.52495305       -1.72976046
 C           -2.70533072        1.95024891       -1.14007348
 C           -1.93832349        2.89259276       -1.82379703
 C           -3.12434612        0.81815484       -1.83474587
 C            0.03275146        3.17691465       -3.06681616
 C            1.22723581        2.39755375       -3.30707761
 C           -1.24763190        2.49402634       -3.04357211
 C            2.08696898        0.16980714       -3.75471843
 C            1.41493035       -1.11736249       -3.80761086
 C            1.09808521        1.20116043       -3.99282353
 C           -0.85398514       -1.56915930       -3.00959793
 C           -2.13674553       -1.06142324       -2.82986205
 C           -2.35709720        0.36767731       -2.98509066
 C           -1.32661223        1.16860718       -3.47300525
 C           -0.00695678       -0.87474910       -3.86555973
 C           -0.20987192        0.55580473       -4.05142319
