   70
C70 / DATE: 7/ 1/2024 / Origin: Program Fullerene / C70 from database
 C            1.54880914        0.01074647        4.62622122
 C            0.74916780       -1.19707231        4.56236614
 C            1.23400861       -2.00490180        3.45704438
 C            2.59258507       -0.10438545        3.62739370
 C            2.46109630       -1.39304976        2.97522956
 C            2.53490031        1.07487832        2.78763361
 C            0.69230553        1.11846362        4.23732916
 C            1.26838632        1.73097790        3.06242296
 C           -0.63736731       -0.78981942        4.54021169
 C           -0.66000815        0.61738171        4.15156863
 C           -1.54001086       -1.63945978        3.92487683
 C            0.30845265       -2.50064897        2.53626905
 C           -1.03464448       -2.55718441        2.90492316
 C            0.66094390       -2.56831032        1.18372481
 C            2.73906847       -1.44920651        1.61866100
 C            1.98516630       -2.30916140        0.82373340
 C            2.91001263        0.93299824        1.45775550
 C            3.31471212       -0.32655735        1.02176688
 C            2.34439002        1.79260351        0.52117615
 C            0.45010519        2.04239553        1.98319288
 C            1.06647781        2.30786137        0.76652548
 C           -1.46854474        1.00733771        3.08248933
 C           -0.90559975        1.68389120        1.98628298
 C           -2.74656784       -1.04386685        3.39436800
 C           -2.66821799        0.32388164        2.91541908
 C           -2.05205402       -2.68343741        1.87876574
 C           -3.18124278       -1.86708210        2.28714921
 C           -0.33084702       -2.60632439        0.19011722
 C           -1.68412323       -2.67713371        0.53665600
 C            0.02628146       -2.46110745       -1.15496206
 C            2.37883867       -2.49125854       -0.49588268
 C            1.35851441       -2.56086381       -1.52488554
 C            3.78065496       -0.44787296       -0.28025367
 C            3.45905676       -1.66451114       -1.00286752
 C            2.83931365        1.76984083       -0.78203016
 C            3.59381584        0.66817945       -1.19605971
 C            2.25622868        2.59677790       -1.73667285
 C            0.29549992        2.77649316       -0.28849254
 C            0.93657823        3.14132250       -1.46857778
 C           -1.65468894        1.87237746        0.81423615
 C           -1.08376002        2.55767486       -0.26643651
 C           -3.35268853        0.37132603        1.63987248
 C           -3.76950962       -0.98366631        1.30392449
 C           -2.86077703        1.18468631        0.62667624
 C           -2.64832733       -2.31299338       -0.40527416
 C           -3.69147924       -1.36780486       -0.02285981
 C           -0.88704519       -1.92878208       -2.06272154
 C           -2.24116622       -1.98293034       -1.76163458
 C           -0.44011314       -1.11678200       -3.11169037
 C            1.82238153       -1.80824551       -2.67844237
 C            3.14876124       -1.30532521       -2.37377907
 C            3.40067931        0.11361708       -2.53090929
 C            0.92901807       -0.97704612       -3.34880706
 C            2.29503934        2.19335180       -3.13011336
 C            2.62376629        0.81613781       -3.43827434
 C            1.41109301        0.19006345       -3.94959587
 C            0.20038058        3.17597036       -2.72004667
 C            1.00103410        2.48571262       -3.71903743
 C            0.48976932        1.25734132       -4.30739526
 C           -1.83400479        2.73355618       -1.42829562
 C           -1.16809058        2.95960139       -2.70198898
 C           -3.32658310        0.96451588       -0.66912778
 C           -3.69637386       -0.32988069       -1.03301754
 C           -3.11679631       -0.92113386       -2.22467196
 C           -2.96173970        1.85367854       -1.66972709
 C           -1.33697264       -0.27221419       -3.76676034
 C           -0.87459224        1.01580610       -4.25406429
 C           -1.73454754        2.03046307       -3.66592380
 C           -2.67152619       -0.07479265       -3.22532509
 C           -2.84728312        1.35290170       -3.02937845
