   70
C70 / DATE: 7/ 1/2024 / Origin: Program Fullerene / C70 from database
 C            1.69712776       -0.08712602        4.58825957
 C            0.83165038       -1.24388209        4.46664919
 C            1.29492385       -2.04323503        3.34397955
 C            2.64107875       -0.12679491        3.48603166
 C            2.35543100       -1.29657539        2.68923920
 C            2.60051097        1.15769547        2.82986006
 C            0.87130153        1.09558413        4.41327508
 C            1.50485505        1.92231651        3.41108264
 C           -0.53779293       -0.76762953        4.44356429
 C           -0.48470504        0.65998449        4.16435480
 C           -1.46583961       -1.53660376        3.76416820
 C            0.33984517       -2.68174153        2.55386245
 C           -0.98442108       -2.67445016        2.99869921
 C            0.60263816       -2.87045986        1.18938305
 C            2.31172609       -1.17137325        1.30883628
 C            1.64318558       -2.14744475        0.58567460
 C            2.76309877        1.21871583        1.44916167
 C            2.60727795        0.04927067        0.68630451
 C            2.45552643        2.43805895        0.86390627
 C            0.70829790        2.65703751        2.53895762
 C            1.36959596        3.20751310        1.44661584
 C           -1.14401877        1.16701534        3.04504370
 C           -0.64701463        2.31235666        2.40717585
 C           -2.42981279       -0.86755326        2.91200122
 C           -2.12843334        0.39637021        2.41627242
 C           -2.04673982       -3.01860547        2.07685781
 C           -2.94108623       -1.87247983        1.99814938
 C           -0.35147633       -3.51289489        0.38800717
 C           -1.69305107       -3.38362378        0.72528099
 C           -0.07776931       -3.69814938       -0.96092149
 C            1.81755935       -2.19115400       -0.79092635
 C            1.17206521       -3.20249301       -1.49094161
 C            2.47378709        0.13311654       -0.70812077
 C            2.26553896       -1.03603087       -1.44607880
 C            2.34327090        2.53657347       -0.57283814
 C            2.34906068        1.37954947       -1.33918980
 C            0.61763641        3.80923712        0.36399735
 C            1.36365298        3.56878956       -0.86126142
 C           -1.40550163        2.87905889        1.38261997
 C           -0.76309803        3.69172115        0.36177411
 C           -2.57360590        0.75143294        1.14272343
 C           -2.41185251        2.06235238        0.72694008
 C           -3.08932656       -1.52954533        0.59443341
 C           -2.54998470       -2.62915384       -0.17480780
 C           -2.80460692       -0.23834864        0.18495102
 C           -1.09869224       -3.28135013       -1.90695520
 C           -2.07244998       -2.39623218       -1.45983555
 C            0.99421296       -3.09887766       -2.92445595
 C           -0.44086505       -3.03303584       -3.16698852
 C            2.25457621       -0.95669301       -2.83726708
 C            1.60510759       -1.98934369       -3.61848247
 C            1.90769886        1.45674955       -2.66387797
 C            1.92770157        0.31261051       -3.45773945
 C            0.69342948        3.51939679       -2.07393666
 C            1.11605637        2.53838201       -3.05900609
 C           -1.46086028        3.46631630       -0.89400197
 C           -2.37487537        2.35232663       -0.69485723
 C           -0.76382807        3.55452674       -2.09186374
 C           -2.45058340       -0.01155092       -1.14530244
 C           -2.08451794       -1.08803516       -1.97494410
 C           -2.39240756        1.30228785       -1.61266838
 C           -0.70753842       -1.78610004       -3.84497575
 C            0.56012382       -1.34387564       -4.39227830
 C            0.83283331        0.07664265       -4.39559282
 C           -1.54265940       -0.83954397       -3.24819245
 C           -0.02286638        2.29226959       -3.91989454
 C           -1.20563548        2.73147001       -3.20442103
 C           -2.00625923        1.55236007       -2.92256427
 C           -0.25433808        0.93535802       -4.36385643
 C           -1.48386893        0.46753972       -3.72904909
