   70
C70 / DATE: 7/ 1/2024 / Origin: Program Fullerene / C70 from database
 C            1.36953275       -0.06729328        4.99966415
 C            0.60400012       -1.25568144        4.65985966
 C            1.50886567       -2.19047625        4.04047081
 C            2.64218613       -0.15434015        4.30504254
 C            2.77474646       -1.50167399        3.80897754
 C            2.70066093        0.93564260        3.35417755
 C            0.65636239        1.08257412        4.47064180
 C            1.53217972        1.77946912        3.55990621
 C           -0.56353956       -0.83142808        3.91484769
 C           -0.60288379        0.61896933        3.94849867
 C           -0.91864794       -1.46883256        2.72054834
 C            1.12318259       -2.79675259        2.78161085
 C           -0.07540546       -2.43869634        2.15384087
 C            3.11105043       -1.69665632        2.41137228
 C            2.33190729       -2.84139333        1.98515905
 C            3.12987810        0.71068523        2.04580570
 C            3.21848420       -0.60078397        1.54608267
 C            2.94797678        1.76200228        1.15691106
 C            0.97875196        2.40361199        2.44473040
 C            1.84764323        2.68170800        1.40111907
 C           -1.12873292        1.25129259        2.83694294
 C           -0.38423155        2.22755768        2.15504922
 C           -1.84524290       -0.81714602        1.90131708
 C           -2.07443173        0.54271178        2.11944592
 C           -2.19036070       -1.37846946        0.67253908
 C           -0.23065028       -2.77635822        0.80493294
 C           -1.33285014       -2.31065201        0.08867095
 C            2.20107969       -3.06327019        0.63103395
 C            0.86770375       -3.26694828        0.09801802
 C            3.12450791       -0.84003387        0.16549208
 C            2.84747190       -2.13603932       -0.27491121
 C            3.01551420        1.52465410       -0.26854198
 C            3.07064457        0.22409969       -0.74242535
 C            1.31687828        3.09411696        0.12176063
 C            2.13037930        2.48082132       -0.91612213
 C           -0.91601586        2.74358529        0.95898111
 C           -0.05598472        3.17513683       -0.06206719
 C           -2.84007682        1.25779052        1.22241589
 C           -2.25328053        2.45960836        0.66229007
 C           -3.17924606       -0.76879893       -0.10576462
 C           -3.52234151        0.55500789        0.15880015
 C           -3.49470395       -1.30805065       -1.35018196
 C           -1.37693322       -2.51036904       -1.29155713
 C           -2.55060975       -2.21827464       -1.97145587
 C            0.95701245       -3.01960087       -1.33051841
 C            2.22211516       -2.33905472       -1.56723095
 C           -0.17889367       -2.59231899       -2.00533832
 C            2.72448711       -0.00387080       -2.07396533
 C            2.26576630       -1.31607656       -2.49527630
 C            1.53687381        2.15340864       -2.13256081
 C            1.94109037        0.99510298       -2.79048009
 C           -0.51290517        3.27237853       -1.37486366
 C            0.30614272        2.72420301       -2.44650355
 C           -2.76124105        2.60090104       -0.69244015
 C           -3.67864064        1.49737370       -0.93784736
 C           -1.90384327        3.01701445       -1.69579339
 C           -4.01153035       -0.42724004       -2.38639773
 C           -3.84318789        1.00486014       -2.22490024
 C           -2.45693616       -1.87236565       -3.37502841
 C           -3.40460661       -0.80752559       -3.64766516
 C           -0.02768427       -1.86726398       -3.19244270
 C            1.13410698       -1.12730142       -3.38495155
 C            1.01366918        0.29246142       -3.66560486
 C           -1.16415938       -1.46335867       -3.88259571
 C           -0.58069969        2.07306468       -3.39948396
 C           -1.95089554        2.37462507       -3.00043532
 C           -2.96546163        1.47117016       -3.29088969
 C           -2.65558165        0.33649958       -4.13776254
 C           -0.25254983        0.81618244       -3.91064252
 C           -1.26786622       -0.06589532       -4.28231082
