   70
C70 / DATE: 7/ 1/2024 / Origin: Program Fullerene / C70 from database
 C            1.60018176        0.18962111        4.87681306
 C            0.78131568       -0.98606347        4.64695971
 C            1.43750062       -1.80655035        3.64074878
 C            2.69685014        0.15342620        3.92683323
 C            2.68126312       -1.14429853        3.27852997
 C            2.61301606        1.34344960        3.09470410
 C            0.79206368        1.35391961        4.56594166
 C            1.53053786        2.16412781        3.61565848
 C           -0.57780881       -0.54148586        4.39417440
 C           -0.53673144        0.89749766        4.19075506
 C           -1.35811699       -1.30574057        3.54711570
 C            0.65027346       -2.39965501        2.65070208
 C           -0.72900100       -2.40096695        2.82758309
 C            1.17759098       -2.61638039        1.36999688
 C            3.10942220       -1.21716307        1.96642261
 C            2.45614532       -2.15012802        1.07067584
 C            2.77924157        1.21021176        1.71289084
 C            3.30185411        0.01884877        1.21961642
 C            2.12746883        2.09399541        0.84258486
 C            0.80239668        2.92700353        2.72238504
 C            1.31017889        3.08253259        1.37553165
 C           -1.13834972        1.46296115        3.06343650
 C           -0.62300592        2.66266603        2.58729518
 C           -2.22134490       -0.63260522        2.59447898
 C           -1.93424269        0.67345743        2.22155040
 C           -1.58293666       -2.69699244        1.70399790
 C           -2.53485401       -1.60459274        1.57068953
 C            0.34123719       -3.01247334        0.31376512
 C           -1.03017739       -3.20757398        0.54340944
 C            0.82218502       -2.92086721       -1.00376312
 C            2.74004447       -1.69350989       -0.27405875
 C            3.14491064       -0.30282869       -0.18225529
 C            1.87345660       -2.05015505       -1.29206946
 C            2.01912779        1.80163988       -0.52423912
 C            2.54453246        0.60919885       -1.03645722
 C            1.23190968        2.61941311       -1.35174835
 C            0.19485030        3.55941553        0.59011768
 C           -1.01429100        3.13152934        1.27762053
 C            0.22443242        3.41515260       -0.78635624
 C           -2.22991492        1.09714866        0.91570088
 C           -1.96227067        2.42356644        0.54960917
 C           -2.85340010       -1.17795193        0.28767297
 C           -2.62129850        0.15869489       -0.06114986
 C           -1.89119777       -3.25930500       -0.54331943
 C           -2.82057215       -2.15111322       -0.71028057
 C            0.05304893       -3.40799127       -2.05731033
 C           -1.36197177       -3.60044283       -1.84125181
 C            0.20553344       -2.81038213       -3.37370202
 C            1.78437252       -1.21560802       -2.40646555
 C            2.09715581        0.14149321       -2.26920456
 C            1.07733974       -1.65648328       -3.51874292
 C            1.21933326        2.36968647       -2.72695124
 C            1.64271402        1.06475660       -3.20335796
 C            0.07117191        2.77248999       -3.52253912
 C           -1.01343141        3.48421788       -1.41611871
 C           -2.13268942        2.81820716       -0.77300170
 C           -1.10904136        3.24695040       -2.83702951
 C           -2.68595815        0.53576977       -1.40682327
 C           -2.66702279        1.88018859       -1.73436181
 C           -2.17280333        2.27405144       -3.03973927
 C           -2.77913721       -1.75462606       -2.10409538
 C           -2.07288324       -2.80052656       -2.82295389
 C           -1.11826377       -2.41712704       -3.83763845
 C           -2.53555711       -0.42173997       -2.41421827
 C            0.36791553       -0.69089655       -4.33528004
 C            0.73058211        0.64530237       -4.25860863
 C           -0.32714096        1.63805266       -4.33402775
 C           -1.66761517        1.24635672       -3.92630732
 C           -1.04040392       -1.02127250       -4.21385403
 C           -1.88972054       -0.09150404       -3.61668674
