   70
C70 / DATE: 7/ 1/2024 / Origin: Program Fullerene / C70 from database
 C            1.47416052       -0.19291229        5.02484928
 C            0.59568856       -1.34082593        4.99007393
 C            1.15022503       -2.27598005        4.03018831
 C            2.52121574       -0.40581038        4.03561637
 C            2.22466401       -1.61993939        3.31447672
 C            2.63086959        0.80687789        3.27352096
 C            0.70201985        0.95478821        4.58637662
 C            1.54022146        1.68486797        3.67400069
 C           -0.68811304       -0.90283280        4.46179356
 C           -0.56821443        0.48615226        4.07808475
 C            0.04493700       -2.75716096        3.24625915
 C           -1.07119080       -1.85186149        3.44409302
 C            0.28721851       -3.11467825        1.93741839
 C            2.16122544       -1.59185727        1.91661266
 C            1.39514914       -2.56677415        1.27577698
 C            2.90256270        0.72901501        1.91139299
 C            2.51224432       -0.42798984        1.20850245
 C            2.84555663        1.94676747        1.25467367
 C            0.93790968        2.40018930        2.65458788
 C            1.82516834        2.87666949        1.70972406
 C           -0.93724395        0.86293053        2.78563736
 C           -0.32682617        1.98247361        2.20064958
 C           -1.71069461       -1.39591679        2.29362813
 C           -1.66162262       -0.02772264        1.97919196
 C           -0.83863361       -3.31263024        1.16942113
 C           -1.81404580       -2.30967871        1.24199551
 C           -0.62368396       -3.95730539       -0.02920254
 C            1.40747325       -2.63281466       -0.11946718
 C            0.61913419       -3.62814575       -0.70012475
 C            2.23048152       -0.35374974       -0.17421975
 C            1.68714359       -1.46160037       -0.84268611
 C            2.82543348        1.98092018       -0.18570719
 C            2.40636823        0.85095408       -0.87353778
 C            1.30189747        3.53937211        0.54949517
 C            2.23742387        3.26252716       -0.52408765
 C           -0.77903616        2.42864537        0.95044177
 C           -0.05703912        3.43041304        0.28995223
 C           -2.06230552        0.38211996        0.70527608
 C           -1.69836516        1.65103577        0.23158704
 C           -2.47730726       -1.91450487        0.08163068
 C           -2.64486597       -0.55013780       -0.15983277
 C           -1.67904360       -3.94278521       -1.00860874
 C           -2.60012743       -2.82719861       -0.96866377
 C            0.35117723       -3.59201100       -2.11746069
 C           -1.04279162       -3.96376911       -2.31061473
 C            1.23329033       -1.30881617       -2.16646157
 C            0.58131651       -2.35261232       -2.81861142
 C            1.82761445        1.01999164       -2.13573005
 C            1.10806551       -0.02939936       -2.70602003
 C            1.79081258        3.45716270       -1.81418650
 C            1.75029260        2.30086045       -2.69189338
 C           -0.49615095        3.89310029       -0.94195760
 C            0.51244598        4.12587800       -1.96571231
 C           -2.17112440        2.09798972       -1.00994798
 C           -1.62686015        3.24810653       -1.57831791
 C           -3.14564366       -0.13092293       -1.38533820
 C           -2.85478108        1.21463911       -1.84613579
 C           -2.74850491       -2.34848548       -2.33205793
 C           -1.66746478       -2.92993326       -3.10898608
 C           -0.61843066       -2.04682509       -3.57949147
 C           -3.03176280       -1.00991108       -2.53759037
 C            0.08830517        0.22190599       -3.63949208
 C           -2.46889391        1.11900119       -3.25150001
 C           -0.93237537       -0.71112665       -3.77196580
 C           -2.23710961       -0.28808004       -3.51316221
 C            0.73843571        2.57434189       -3.69251659
 C           -0.03164203        3.72274288       -3.24357450
 C           -1.38847959        3.26736871       -3.01284533
 C           -0.20371237        1.52786458       -4.01092728
 C           -1.54406109        2.02703301       -3.73829307
