   70
C70 / DATE: 7/ 1/2024 / Origin: Program Fullerene / C70 from database
 C            1.32986733       -0.02588629        4.14609394
 C            2.48201983       -0.13331270        3.26684303
 C            2.47713120       -1.47966041        2.71702994
 C            0.46517759       -1.16394672        3.88754344
 C            1.19035345       -2.07832372        3.04250055
 C           -0.80146775       -0.66198721        3.40906853
 C            0.51455385        1.16701674        4.08077078
 C           -0.82755091        0.76377555        3.67245695
 C            1.07057923        2.31171135        3.53241717
 C            2.82925043        0.94278643        2.45266502
 C            2.22226576        2.18704069        2.64715423
 C            3.48057087        0.69579129        1.24665316
 C            3.02519296       -1.72341343        1.45639010
 C            3.59466283       -0.66689502        0.74545624
 C            2.57956054       -2.84458727        0.75433700
 C            0.51710190       -2.74720181        2.03382070
 C            1.32550060       -3.45528973        1.16115818
 C           -1.30060448       -1.12994501        2.19661518
 C           -0.71262655       -2.23937234        1.57036241
 C           -2.20434342       -0.33567736        1.48998178
 C           -1.56484350        1.58131752        2.82309963
 C           -2.42147808        0.99526140        1.88966558
 C            0.18091387        3.30332833        2.96369767
 C           -1.17782591        2.91125717        2.64300333
 C            1.99080140        3.04790334        1.49609792
 C            0.78303935        3.80451964        1.73732137
 C            3.22106433        1.56618456        0.11060471
 C            2.24026504        2.54491078        0.22569353
 C            3.46057721       -0.61867762       -0.70560990
 C            3.32233399        0.77249478       -1.09939738
 C            2.58233688       -2.82578369       -0.69932072
 C            2.72867983       -1.60988535       -1.35408239
 C            0.73704771       -4.08218853        0.00606645
 C            1.57352797       -3.76159062       -1.14200625
 C           -1.26533565       -2.71794369        0.37203079
 C           -0.62041265       -3.73088159       -0.33965610
 C           -2.80813481       -0.84992689        0.33717691
 C           -2.29351272       -2.00623729       -0.25490596
 C           -3.72480701       -0.08106192       -0.37679293
 C           -3.17267583        1.84845271        1.08860914
 C           -3.88298394        1.31793592       -0.05165931
 C           -1.50778751        3.58068496        1.39728184
 C           -0.24509888        3.80726411        0.71738957
 C           -2.56474380        3.09066736        0.65476926
 C            1.28176608        2.68973147       -0.78766351
 C           -0.00476862        3.15529756       -0.49097646
 C            2.52581662        1.09163718       -2.18308715
 C            1.52487422        2.13741380       -2.04094914
 C            1.88234190       -1.27176578       -2.42282015
 C            1.92952409        0.01803921       -2.95336978
 C            0.68969765       -3.37195532       -2.21624814
 C           -0.65930683       -3.70782322       -1.78734440
 C            0.90503706       -2.16832088       -2.88385453
 C           -2.64540465       -2.31987013       -1.57387434
 C           -1.72151421       -3.07407782       -2.40399383
 C           -3.71267528       -0.14648832       -1.82336231
 C           -3.24222438       -1.30088760       -2.42166973
 C           -3.44835756        2.07951873       -1.21709436
 C           -2.38333459        2.94970118       -0.77580697
 C           -1.09607462        2.75202304       -1.27118472
 C           -3.17133246        1.12736108       -2.26765500
 C            0.39915817        1.78499733       -2.88810082
 C            0.75563308        0.57003406       -3.60059680
 C           -0.89458291        1.94491986       -2.39868801
 C           -1.93189308        1.14407601       -2.90402099
 C           -0.10511860       -1.71235307       -3.73155650
 C           -1.44110583       -2.26346493       -3.57558678
 C           -2.38475149       -1.16051069       -3.58576570
 C           -0.24809092       -0.29041002       -3.99899512
 C           -1.63145541        0.07254887       -3.74412985
