   70
C70 / DATE: 7/ 1/2024 / Origin: Program Fullerene / C70 from database
 C            1.23656057        0.10963988        4.80024804
 C            2.44203812       -0.12807681        4.03672062
 C            2.45384514       -1.53047246        3.65247824
 C            0.40499102       -1.08144171        4.69955548
 C            1.15816536       -2.09496291        3.98211620
 C           -0.89206694       -0.67275501        4.18456605
 C            0.41448752        1.24849868        4.45071811
 C           -0.94610183        0.76856759        4.28039632
 C            0.74039362        2.02636320        3.26560011
 C            2.68965738        0.65493789        2.83604047
 C            1.78282210        1.63239454        2.42450099
 C            2.92598125       -1.60457081        2.27924515
 C            3.23160212       -0.25363349        1.84648507
 C            2.29835910       -2.45955926        1.37564616
 C            0.50487189       -2.85926265        3.02641011
 C            1.20003712       -3.21321651        1.79941162
 C           -1.39819244       -1.29408898        3.04377563
 C           -0.86215830       -2.52069517        2.65479842
 C           -2.18348537       -0.56880223        2.13595596
 C           -1.52395765        1.50151451        3.17811790
 C           -0.52467835        2.41839516        2.67071402
 C           -2.28676999        0.82661174        2.24309071
 C           -0.55650147        2.71612498        1.31334492
 C            1.71226122        1.96415851        1.06896977
 C            0.64866792        2.74866598        0.62014874
 C            3.06592122        0.04616047        0.50562918
 C            2.49689861        1.26639484        0.14229778
 C            2.47848728       -2.22774295        0.00847966
 C            3.02360476       -1.00552926       -0.40085647
 C            1.76315803       -3.00201033       -0.90349083
 C            0.17419919       -3.58675945        0.84040231
 C           -1.07395500       -2.99753500        1.29754385
 C            0.47907779       -3.54400808       -0.50758282
 C           -2.59933877       -1.18641853        0.94856777
 C           -1.83396143       -2.22749709        0.42420348
 C           -3.45938395       -0.49667140        0.09885194
 C           -2.65094374        1.54041056        1.11166464
 C           -1.73409474        2.46985014        0.59753363
 C           -3.56555870        0.93772124        0.26798548
 C           -1.79699818        2.85747259       -0.74767833
 C            0.63864102        3.18751239       -0.69401665
 C           -0.63724720        3.30749020       -1.37954560
 C            2.43251326        1.59583445       -1.21455430
 C            1.59909096        2.63342613       -1.62964559
 C            3.11803316       -0.69748639       -1.75247508
 C            2.92232063        0.68589524       -2.15223626
 C            1.63320257       -2.56066073       -2.27944972
 C            2.45344316       -1.54087239       -2.73153641
 C           -0.50616067       -3.01587821       -1.43423634
 C           -1.58293789       -2.28214562       -0.95287987
 C            0.20902523       -2.52054144       -2.59318110
 C           -3.36412662       -0.74043599       -1.32711726
 C           -2.23371264       -1.39491955       -1.80931203
 C           -3.83004981        1.52671352       -1.02463836
 C           -2.90794430        2.52392761       -1.52047886
 C           -3.86765041        0.44381520       -1.99334218
 C           -2.73654220        2.26204579       -2.93892010
 C           -3.20061837        0.90470864       -3.18751662
 C           -0.41483605        3.01644619       -2.78920991
 C            0.96704076        2.59030318       -2.94272077
 C           -1.41205960        2.38485657       -3.52212788
 C            2.38236890        0.67755219       -3.49951052
 C            1.96938107       -0.68420202       -3.79696530
 C            1.27194969        1.55565845       -3.81765265
 C           -0.31270108       -1.43661515       -3.29531193
 C           -1.58655739       -0.95204284       -2.97732293
 C           -2.06779299        0.15280513       -3.68361102
 C           -1.11886970        1.12517742       -4.18999110
 C            0.54536063       -0.65456475       -4.07068520
 C            0.19949443        0.72802440       -4.35241453
