   70
C70 / DATE: 7/ 1/2024 / Origin: Program Fullerene / C70 from database
 C            1.23035535       -0.03482852        4.99642512
 C            0.47751370       -1.24000006        4.69462967
 C            1.40543826       -2.21484950        4.17656696
 C            2.53296115       -0.16681947        4.36668585
 C            2.67975376       -1.54076426        3.95139881
 C            2.64058728        0.86921996        3.36174626
 C            0.54639630        1.08341097        4.36707650
 C            1.47754548        1.73680298        3.48294604
 C           -0.64792825       -0.85907760        3.86903600
 C           -0.67533055        0.59110586        3.78518380
 C           -0.95769029       -1.58405316        2.71818783
 C            1.07257035       -2.90471872        2.94383662
 C           -0.09341503       -2.58151041        2.23953469
 C            3.06080618       -1.81455001        2.57849834
 C            2.31559640       -3.00037425        2.20727847
 C            3.10791168        0.56633966        2.08100946
 C            3.15894292       -0.77049904        1.65075388
 C            2.98550448        1.57497575        1.13378924
 C            0.99519050        2.32518973        2.31937918
 C            1.93861335        2.56367986        1.33480041
 C           -1.11410428        1.14914922        2.59212736
 C           -0.34164002        2.11256046        1.92974596
 C           -1.84376970       -0.99740977        1.82598741
 C           -1.98672523        0.39251035        1.83462762
 C           -2.20184419       -1.69949968        0.68459915
 C           -0.18467942       -2.98592367        0.89647760
 C           -1.23508430       -2.51256851        0.09016838
 C            2.24051864       -3.31869093        0.86859762
 C            0.93009078       -3.58848450        0.31116412
 C            3.03874783       -1.08382472        0.28676709
 C            2.87578311       -2.41963290       -0.07422590
 C            2.99728616        1.24385384       -0.27669958
 C            2.81697172       -0.07259618       -0.65800147
 C            1.49892315        3.01058276        0.04128786
 C            2.25824100        2.28405581       -0.96164530
 C           -0.76921657        2.54870177        0.65756600
 C            0.14439843        3.20190425       -0.18272750
 C           -2.63226533        1.00035742        0.77549301
 C           -1.97716534        2.05219512        0.12177456
 C           -3.23721160       -1.18270100       -0.08434115
 C           -3.55245025        0.22194127        0.09120558
 C           -3.22390194       -1.41855694       -1.50807120
 C           -1.14295492       -2.56517516       -1.31532894
 C           -2.02142066       -1.80162453       -2.08633288
 C            1.10435853       -3.52090219       -1.12039565
 C            2.31322168       -2.74287433       -1.36636886
 C            0.05059253       -2.94193248       -1.91647012
 C            2.18058415       -0.34603579       -1.87825781
 C            1.95671297       -1.66441581       -2.26172440
 C            0.66874700       -2.00502454       -2.82898776
 C            1.61756211        2.00378564       -2.15926270
 C            1.47576075        0.66392443       -2.55168957
 C           -0.21080612        3.46657548       -1.49708447
 C            0.64475636        2.92099009       -2.54104673
 C           -2.41361665        2.47493088       -1.14582169
 C           -1.57708222        3.27142880       -1.92103930
 C           -4.11790824        0.70917848       -1.14185890
 C           -4.02624027       -0.37165435       -2.11308112
 C           -3.53312351        1.88555160       -1.74261560
 C           -3.58688594        0.20588125       -3.36280529
 C           -3.54488834        1.64641265       -3.17699588
 C           -1.50102894       -1.08340496       -3.17517318
 C           -0.11879224       -0.97676476       -3.31203522
 C            0.44310417        0.29137687       -3.42981731
 C           -2.29805552       -0.19186987       -3.89094784
 C           -0.18475712        2.63509311       -3.68656928
 C           -1.52876487        3.08141543       -3.36290387
 C           -2.45072712        2.15166434       -3.97889964
 C           -0.27571981        1.26217912       -4.12328335
 C           -1.67485342        1.00468737       -4.43384295
