   70
C70 / DATE: 7/ 1/2024 / Origin: Program Fullerene / C70 from database
 C            1.08136831       -0.04067377        4.64091766
 C            2.43748254       -0.30432688        4.20114534
 C            2.48656264       -1.68448867        3.75184141
 C            0.28956361       -1.23050541        4.36284863
 C            1.11977176       -2.15827631        3.63177058
 C           -0.94527589       -0.80430655        3.75752265
 C            0.36966374        1.10204062        4.09368063
 C           -0.95310545        0.64897143        3.71170476
 C            1.03380604        1.99694061        3.27110390
 C            3.01284960        0.52010112        3.15355305
 C            2.36636553        1.68299191        2.76189529
 C            3.32790557       -1.73921796        2.57526770
 C            3.55266501       -0.36600860        2.13508597
 C            3.02479278       -2.69089510        1.61633121
 C            0.68891770       -2.64766722        2.39683231
 C            1.65269465       -3.18624107        1.54619336
 C           -1.43977424       -1.49028142        2.65717460
 C           -0.56284962       -2.26447646        1.87769669
 C           -2.55067617       -0.92037316        2.05694125
 C           -1.63764864        1.26105588        2.66160146
 C           -2.67568642        0.52805700        2.10048547
 C            0.29712293        2.64840524        2.20274757
 C           -1.00141656        2.24133395        1.88384173
 C            2.39858600        2.06528726        1.36400600
 C            1.23529807        2.89496754        1.12446407
 C            3.41673950       -0.04711489        0.77847066
 C            2.77318056        1.13603039        0.39559140
 C            3.45944837       -2.43594238        0.26020471
 C            3.60900095       -1.05505990       -0.16067035
 C            1.33440819       -3.41279969        0.15245514
 C            2.50401902       -3.06470789       -0.62906749
 C           -0.88739069       -2.55691925        0.53782741
 C            0.09724802       -3.02752189       -0.33661826
 C           -2.96814545       -1.36212549        0.74786612
 C           -2.13904883       -2.19640807        0.01545954
 C           -3.26761947        0.95872588        0.85638724
 C           -3.60022865       -0.23003694        0.08795842
 C           -1.50346031        2.56794911        0.61293919
 C           -2.73859827        2.05222501        0.19368378
 C            0.73666180        2.97146784       -0.16068946
 C           -0.63234279        3.14999685       -0.31948592
 C            2.29169071        1.29738406       -0.91101614
 C            1.46276299        2.38805308       -1.19729301
 C            3.00217858       -0.93611531       -1.47169952
 C            2.31960569       -2.18349844       -1.76524516
 C            2.36928343        0.24546161       -1.83032903
 C           -0.00789032       -2.73941236       -1.69414432
 C            1.05728538       -2.10003525       -2.33653828
 C           -2.37486062       -2.30347979       -1.35531004
 C           -1.27685878       -2.64335293       -2.24037945
 C           -3.58573379       -0.15915013       -1.30194161
 C           -3.18026797       -1.28476248       -2.01900866
 C           -3.16921935        2.25914622       -1.11135209
 C           -3.56209907        1.10286715       -1.90536560
 C           -1.09442828        3.53503259       -1.57089104
 C           -2.43360469        3.16338718       -1.96645033
 C            1.00359231        2.56229844       -2.50037356
 C           -0.22028061        3.31981741       -2.70960912
 C            1.45859937        0.20219035       -2.88625980
 C            0.78627204       -0.99788260       -3.14520596
 C            0.96204191        1.40540175       -3.37416750
 C           -1.44967902       -1.90302882       -3.47711755
 C           -2.67860393       -1.13646501       -3.37341147
 C           -0.39264269       -0.99894016       -3.88398943
 C           -3.01065679        1.27559543       -3.24312061
 C           -2.36601454        2.57548078       -3.29507820
 C           -0.99075432        2.65737764       -3.74834904
 C           -0.29362759        1.43477297       -4.10640045
 C           -2.41812816        0.19492137       -3.88250591
 C           -1.01081733        0.25676260       -4.26641251
