   70
C70 / DATE: 7/ 1/2024 / Origin: Program Fullerene / C70 from database
 C            1.49988993       -0.19706838        5.21422381
 C            0.64059644       -1.36385397        5.19616893
 C            1.23755371       -2.32745021        4.29279179
 C            2.57370221       -0.41711294        4.25672194
 C            2.34836707       -1.68518187        3.60705403
 C            2.65298709        0.75468317        3.42542489
 C            0.72053439        0.92754625        4.73037262
 C            1.54633043        1.63321984        3.77978962
 C           -0.63300031       -0.97178645        4.61448605
 C           -0.55217845        0.43051681        4.25683940
 C            0.16761583       -2.86307559        3.47964750
 C           -0.94541704       -1.92621062        3.56826436
 C            0.50790083       -3.32818815        2.22321767
 C            2.39801946       -1.76384285        2.21217493
 C            1.74230703       -2.83806821        1.62134975
 C            2.94302610        0.61155416        2.07242785
 C            2.67787729       -0.61840975        1.43896868
 C            2.82880459        1.77732798        1.33066638
 C            0.92891426        2.30404848        2.73284728
 C            1.77746057        2.70243096        1.71410275
 C           -0.96521194        0.81702106        2.98577957
 C           -0.38222001        1.94108835        2.38617752
 C           -1.51810521       -1.46261567        2.38382891
 C           -1.67370860       -0.08690994        2.18833160
 C           -0.49231798       -3.26094730        1.18177902
 C           -1.49396600       -2.29755593        1.26833997
 C            1.55966637       -2.86858229        0.18619521
 C            0.22852092       -3.38596200       -0.06565881
 C            2.52330256       -0.66177397        0.03378010
 C            2.00192000       -1.80818393       -0.58988453
 C            2.85290222        1.71600122       -0.10995811
 C            2.78143399        0.48427653       -0.73556379
 C            1.20990737        3.25159656        0.50916472
 C            2.02563683        2.80506248       -0.60559034
 C           -0.92310825        2.39773137        1.17834852
 C           -0.16436737        3.24649247        0.35889325
 C           -2.19915480        0.36707801        0.98179931
 C           -2.00731313        1.70052467        0.63392315
 C           -2.07885040       -1.86346477        0.08096722
 C           -2.56078914       -0.55622223       -0.00342420
 C           -0.41273753       -2.97114993       -1.21706224
 C           -1.72349516       -2.51977207       -1.09413439
 C            1.52199643       -1.73164031       -1.90071246
 C            0.36655038       -2.44541549       -2.24264464
 C            2.50765660        0.48485254       -2.09956062
 C            1.96716144       -0.70442675       -2.71820531
 C            1.42944614        2.68600764       -1.85861506
 C            1.82879889        1.63706305       -2.68424371
 C           -0.64634540        3.58849001       -0.89606073
 C            0.18097389        3.27885837       -2.05626746
 C           -2.65420389        2.20075059       -0.48718525
 C           -2.01592976        3.26747758       -1.22601404
 C           -3.10407135       -0.10610262       -1.21369850
 C           -3.21142336        1.26680667       -1.45095225
 C           -2.41872292       -2.22033150       -2.25454436
 C           -3.19022296       -0.99043230       -2.29111700
 C           -0.25251467       -2.23445322       -3.47261424
 C           -1.70144250       -2.32779357       -3.51293990
 C            1.16806156       -0.28428356       -3.85645557
 C            0.94009962        1.14936779       -3.72841484
 C            0.13857279       -1.10014789       -4.29366239
 C           -0.69762255        2.80066754       -3.11250848
 C           -2.06327448        2.93010813       -2.63576358
 C           -2.95206486        1.79802365       -2.78690555
 C           -0.34910763        1.67143597       -3.84786390
 C           -3.11139978       -0.46477236       -3.64359728
 C           -2.19985216       -1.30011064       -4.40497190
 C           -1.07064168       -0.47663885       -4.79846767
 C           -2.69742069        0.91014421       -3.81919240
 C           -1.36229331        0.89168400       -4.41039281
