   70
C70 / DATE: 7/ 1/2024 / Origin: Program Fullerene / C70 from database
 C            1.36498466       -0.06057845        4.16964467
 C            2.52050329       -0.18520945        3.29917715
 C            2.46399979       -1.49762133        2.67498959
 C            0.50674371       -1.21193147        3.93598614
 C            1.14851836       -2.05305530        2.95251540
 C           -0.82444494       -0.72457124        3.65940951
 C            0.54336332        1.13113559        4.08770894
 C           -0.83782245        0.70080852        3.93662254
 C            1.00930407        2.22175725        3.36475764
 C            2.94483017        0.90312523        2.54460594
 C            2.26503339        2.12316991        2.63121930
 C            3.78781048        0.66130720        1.46510080
 C            3.01915854       -1.68042621        1.40868481
 C            3.79396428       -0.66011736        0.85289107
 C            2.45930209       -2.64379316        0.56901230
 C            0.40602707       -2.56436287        1.89597468
 C            1.11732606       -3.13454404        0.84952177
 C           -1.51200641       -1.19663191        2.54576027
 C           -0.89672251       -2.10095997        1.66281915
 C           -2.65024584       -0.50053206        2.13673218
 C           -1.73766051        1.50035019        3.24475335
 C           -2.74058922        0.86239491        2.40630170
 C            0.08491709        3.00747197        2.55968518
 C           -1.26348880        2.68165198        2.53780231
 C            2.14917540        2.98257200        1.45965938
 C            0.74783062        3.32644801        1.30786011
 C            3.88985549        1.64578141        0.40356688
 C            2.89687994        2.69881192        0.33030249
 C            3.82125486       -0.48030909       -0.59301955
 C            3.89091393        0.94006072       -0.86556290
 C            2.56957640       -2.48887543       -0.87098638
 C            3.00294846       -1.27300481       -1.38740541
 C            0.45796530       -3.38985863       -0.41765208
 C            1.43166363       -3.16326761       -1.47175767
 C           -1.57370699       -2.49540232        0.50376044
 C           -0.85550132       -2.97252759       -0.59907109
 C           -3.41456019       -1.00913123        1.09695723
 C           -2.91238946       -2.15170055        0.36242876
 C           -3.97032837       -0.08099351        0.12390991
 C           -3.04878207        1.77094259        1.31545190
 C           -1.98974587        2.76558640        1.28055107
 C           -3.52367209        1.23976286        0.11961980
 C            0.09483347        3.07101439        0.10257745
 C           -1.30179159        2.97821731        0.08916556
 C            2.22207651        2.58486753       -0.95219491
 C            2.86752062        1.52509027       -1.70579518
 C            0.83506817        2.70142096       -1.02852253
 C            2.30836941       -0.69591736       -2.45621155
 C            2.06691719        0.68398754       -2.46635348
 C            0.98343912       -2.74152808       -2.71154116
 C            1.53685120       -1.52003065       -3.27260864
 C           -1.34105656       -2.79251823       -1.90160450
 C           -0.44517303       -2.72435631       -2.96723753
 C           -3.49670669       -2.10470208       -0.96166636
 C           -4.12765613       -0.80298003       -1.12492868
 C           -2.63689963       -2.32631439       -2.10339384
 C           -3.62567444       -0.21463728       -2.35097537
 C           -2.86103205       -1.23801300       -3.04421608
 C           -3.13581443        1.84091247       -1.08023907
 C           -1.96101081        2.70215702       -1.10293729
 C           -3.16405471        1.09518504       -2.33264207
 C            0.18251670        2.14734135       -2.12950107
 C            0.82379474        1.15869737       -2.88173287
 C           -1.18265663        2.35820160       -2.27529470
 C           -1.97653706        1.45606173       -3.09279379
 C            0.51227029       -0.92164013       -4.11209477
 C           -0.67971009       -1.74745108       -4.01480512
 C           -1.82900765       -0.86619453       -3.89765747
 C            0.12020317        0.44719109       -3.84732501
 C           -1.33126244        0.50220443       -3.86775925
