   70
C70 / DATE: 7/ 1/2024 / Origin: Program Fullerene / C70 from database
 C            1.30374339       -0.05305997        4.19979559
 C            2.58969141       -0.35877485        3.61872539
 C            2.61568490       -1.77914156        3.32567988
 C            0.47758961       -1.24961583        4.11700165
 C            1.26838797       -2.29605640        3.50517775
 C           -0.77328620       -0.87552470        3.49346799
 C            0.53859998        1.04135401        3.63766734
 C           -0.81833153        0.57403991        3.45517444
 C            1.08633942        1.84390866        2.64054740
 C            2.98475300        0.34320349        2.41525961
 C            2.26200795        1.44664619        1.98287272
 C            3.25351479       -1.95658847        2.03063690
 C            3.37019610       -0.64053213        1.41974550
 C            2.83225228       -3.01626698        1.24623966
 C            0.72150654       -3.06010430        2.47880329
 C            1.62487897       -3.71711853        1.64478827
 C           -1.21448036       -1.58358264        2.38179895
 C           -0.57163513       -2.76914918        2.00787380
 C           -2.10586025       -0.95961254        1.50207504
 C           -1.57899300        1.18212747        2.46933301
 C           -2.42747604        0.38721828        1.69963863
 C            0.21889512        2.71408455        1.97352473
 C           -1.14789364        2.40744875        1.95537259
 C            0.75509790        3.54104525        0.98695799
 C            2.44421157        1.84306657        0.66550452
 C            1.95158468        3.08698842        0.30900067
 C            2.96844187       -0.43929036        0.09487218
 C            2.62190539        0.85260855       -0.31081392
 C            2.72329449       -2.82162428       -0.18563100
 C            2.57474956       -1.52969116       -0.68619743
 C            1.14886087       -4.42813146        0.47931237
 C            1.84811958       -3.87071565       -0.67145263
 C           -1.11769344       -3.51972303        0.96937841
 C           -0.26801296       -4.40496452        0.19427886
 C           -2.47957878       -1.58819369        0.30980570
 C           -2.02983360       -2.87531046        0.04086382
 C           -2.92834368       -0.80840488       -0.75680571
 C           -3.31024756        1.01040212        0.82385989
 C           -3.54573185        0.40562846       -0.47392166
 C           -2.01129683        3.11776668        1.12665013
 C           -3.20037667        2.44593283        0.63324553
 C           -0.11022121        4.16244764       -0.00249010
 C           -1.47200715        3.91136839        0.03676689
 C            1.84045233        3.42769491       -1.09039852
 C            0.57512389        4.11905112       -1.28142789
 C            2.16258546        1.06007369       -1.61573779
 C            1.91584266        2.35731617       -2.06163518
 C            1.80079742       -1.31480210       -1.83193280
 C            1.71985434       -0.02796949       -2.37233992
 C            0.85379374       -3.53504269       -1.66541002
 C           -0.42152603       -4.04300651       -1.20232779
 C           -1.57412044       -3.16574792       -1.30718854
 C            0.86454008       -2.27368585       -2.24154620
 C           -2.43876240       -1.06955723       -2.04173777
 C           -1.52435647       -2.10913058       -2.21054594
 C           -0.30730033       -1.83707593       -2.84537697
 C           -2.52172220       -0.09623918       -3.03320130
 C           -3.56448864        1.46544646       -1.46962636
 C           -3.31465956        2.72157388       -0.78887508
 C           -2.16402416        3.51577201       -1.18258811
 C           -2.96311932        1.24470441       -2.69713385
 C           -0.09070816        3.50832480       -2.41776946
 C            0.86206401        2.59147203       -3.03011550
 C           -1.43442665        3.14625159       -2.31349961
 C           -1.94817395        2.17591956       -3.17375664
 C            0.87592556        0.18526780       -3.46702054
 C           -0.21651240       -0.74372972       -3.69107743
 C           -1.41335827        0.02879634       -3.95796389
 C            0.38978242        1.52238183       -3.77088085
 C           -1.03651041        1.42983196       -4.02327069
