   70
C70 / DATE: 7/ 1/2024 / Origin: Program Fullerene / C70 from database
 C            1.64164762       -0.08262293        4.57830111
 C            0.82653712       -1.26970872        4.40784792
 C            1.38619993       -2.05122702        3.31844462
 C            2.67011743       -0.10336788        3.55343259
 C            2.50146255       -1.30165711        2.76682581
 C            2.62450534        1.16141882        2.86225532
 C            0.79332448        1.07019324        4.32584026
 C            1.43375793        1.86982314        3.31052246
 C           -0.55430710       -0.84352445        4.30460712
 C           -0.54533985        0.59253196        4.06766903
 C           -1.41445447       -1.62677330        3.55201970
 C            0.51492657       -2.68785474        2.43635938
 C           -0.85421202       -2.68166493        2.71901263
 C            0.93888760       -2.93037175        1.12688569
 C            2.60784814       -1.21556597        1.38602187
 C            2.04695317       -2.23633300        0.62851908
 C            2.91696493        1.20032700        1.50354829
 C            2.92755911        0.00482621        0.76574885
 C            2.57036217        2.37356049        0.85275661
 C            0.65478031        2.49565352        2.34348487
 C            1.35249158        3.04612196        1.27680334
 C           -1.25057960        1.09794435        2.97706073
 C           -0.66367349        2.06015546        2.13150794
 C           -2.44725474       -0.97444148        2.76707981
 C           -2.38162252        0.39979771        2.54978617
 C           -1.81339304       -2.94318604        1.65648800
 C           -2.76595088       -1.84479467        1.64572475
 C            0.07091152       -3.57753751        0.24913062
 C           -1.36024813       -3.45234705        0.45379990
 C            0.30986764       -3.52718046       -1.18244172
 C            2.38958048       -2.32312470       -0.71244481
 C            1.49310144       -2.97550283       -1.65059612
 C            2.99908418        0.05153260       -0.63702683
 C            2.93898461       -1.14455046       -1.35544752
 C            2.62892286        2.43442080       -0.58837867
 C            2.86758883        1.27242113       -1.31255599
 C            0.64176642        3.45514793        0.08410119
 C            1.57740256        3.34249510       -1.01890880
 C           -1.36293622        2.49014246        0.99441915
 C           -0.67334057        3.04755851       -0.09239999
 C           -3.16081256        0.93242945        1.53336166
 C           -2.69533640        2.12228464        0.85324191
 C           -3.15629943       -1.25797408        0.44320056
 C           -3.67480232        0.03069373        0.51434962
 C           -1.92640097       -2.94157068       -0.78007044
 C           -0.95258715       -3.19309158       -1.82684945
 C           -2.63628078       -1.74024256       -0.76921042
 C           -0.95988398       -2.38958852       -2.95571145
 C            1.49497002       -2.20139225       -2.88047850
 C            2.48599983       -1.14600879       -2.73635486
 C            0.29627768       -1.94213196       -3.53656986
 C            2.62160463        1.29306910       -2.68547871
 C            2.30538368        0.06337938       -3.38778576
 C            1.08160928        3.22362932       -2.30527345
 C            1.76644150        2.33541951       -3.22784567
 C           -1.20269581        2.98850132       -1.39114474
 C           -0.34799741        3.03801389       -2.49107833
 C           -3.29496027        2.12011975       -0.46391844
 C           -3.85580064        0.79723908       -0.69483288
 C           -2.46462002        2.44896240       -1.59988932
 C           -2.71265238       -0.97452739       -1.94429554
 C           -1.90545544       -1.28991977       -3.03454922
 C           -3.29543484        0.28656682       -1.92482425
 C           -2.61110304        1.38714432       -2.58313445
 C            0.06898867       -0.63775567       -4.13689897
 C            1.09787090        0.29328053       -4.16952613
 C            0.76581034        1.69966873       -4.06803766
 C           -0.54331258        2.07813026       -3.56771855
 C           -1.28253587       -0.21229192       -3.79027154
 C           -1.54420848        1.11522757       -3.43820950
