   70
C70 / DATE: 7/ 1/2024 / Origin: Program Fullerene / C70 from database
 C            1.22590516        0.03115435        4.29080581
 C            2.51870602       -0.34491403        3.77638135
 C            2.46490331       -1.76289307        3.44640436
 C            0.40588324       -1.16958384        4.31125576
 C            1.06782741       -2.15480628        3.48812901
 C           -0.92894189       -0.77177711        3.94439791
 C            0.46674924        1.04440392        3.58504372
 C           -0.92140770        0.66663572        3.73802843
 C            0.89738275        1.49794441        2.33914248
 C            3.01756950        0.33614824        2.60301134
 C            2.19634025        1.21860639        1.89167721
 C            3.20847902       -1.94767917        2.21389088
 C            3.77790355       -0.65389857        1.86809437
 C            2.65219429       -2.73219304        1.21187817
 C            0.44440220       -2.59281004        2.31779216
 C            1.23747909       -3.07909195        1.27557643
 C           -1.63222001       -1.53751359        3.02828527
 C           -0.90401271       -2.27294208        2.07317869
 C           -2.87597908       -1.02814485        2.68235520
 C           -1.85677116        1.18128640        2.85131431
 C           -3.00648711        0.41995127        2.64816608
 C           -0.05748082        1.98363602        1.44244741
 C           -1.41061249        2.00300627        1.81345981
 C            0.33005990        2.36809479        0.15389771
 C            2.56105133        1.54748960        0.58414355
 C            1.66187602        2.22593088       -0.24271605
 C            4.08201759       -0.37613788        0.54780267
 C            3.66085218        0.90426798        0.01399685
 C            2.98286938       -2.45226548       -0.17631395
 C            3.79123255       -1.36573738       -0.48010919
 C            0.71940535       -3.06919182       -0.07967875
 C            1.79615617       -2.69575544       -0.97925439
 C           -1.42048340       -2.44837932        0.77730807
 C           -0.55164963       -2.56646994       -0.29990804
 C           -3.55924407       -1.56022439        1.52862273
 C           -2.75996178       -2.20091222        0.51247005
 C           -3.91685713        0.76510288        1.57337541
 C           -4.29314448       -0.47241673        0.90588322
 C           -2.35311296        2.54232880        0.94409239
 C           -3.64837289        1.88943338        0.80546994
 C           -0.62842775        2.77372235       -0.77900423
 C           -1.93592329        2.99087678       -0.37069366
 C           -0.35961875        2.64836694       -2.14382920
 C            2.01439527        2.48848251       -1.57017992
 C            0.96759360        2.70183468       -2.55738969
 C            3.74139787        0.77900399       -1.42348563
 C            3.55292445       -0.63524155       -1.71332711
 C            3.06397980        1.70014965       -2.20147560
 C            1.51252347       -1.86913246       -2.06240058
 C            2.50572103       -1.00959961       -2.55275797
 C           -0.84054188       -1.90942266       -1.49830669
 C            0.17605177       -1.68234919       -2.42916349
 C           -3.12214060       -1.62246556       -0.77234167
 C           -4.11321372       -0.58343936       -0.53102382
 C           -2.13053943       -1.41292599       -1.73041680
 C           -3.97797357        1.86165391       -0.60785984
 C           -2.99503310        2.67218372       -1.30315184
 C           -4.06604170        0.57822024       -1.28868719
 C           -1.33348639        2.10136001       -2.99565507
 C           -2.33624722       -0.44269000       -2.71652585
 C           -2.63157574        1.97777816       -2.51944296
 C           -3.18082420        0.63230454       -2.43713994
 C           -0.12555005       -1.01186357       -3.60501887
 C           -0.94527029        1.14093251       -3.92169388
 C           -1.34494427       -0.23140608       -3.66897958
 C            1.36461482        2.01908997       -3.77721703
 C            2.55314719        1.24580500       -3.48040262
 C            2.21406754       -0.16122124       -3.61755973
 C            0.41701724        1.12530707       -4.40397891
 C            0.91341173       -0.23499785       -4.25068903
