   70
C70 / DATE: 7/ 1/2024 / Origin: Program Fullerene / C70 from database
 C            1.63984378        0.03835097        4.50072088
 C            0.86046699       -1.18245636        4.46545743
 C            1.33188525       -1.99625049        3.35512264
 C            2.65752736       -0.06702646        3.47585215
 C            2.48764223       -1.33339720        2.78647501
 C            2.59812598        1.13878074        2.67238122
 C            0.75468423        1.12729648        4.12313695
 C            1.32447644        1.77486355        2.96077006
 C           -0.53541733       -0.79728241        4.47118973
 C           -0.58436307        0.58763936        4.02288692
 C           -1.43321992       -1.68655541        3.90716308
 C            0.37989030       -2.56724722        2.51482475
 C           -0.90131370       -2.72673790        3.03845714
 C            0.55977436       -2.49995948        1.12216470
 C            2.65809854       -1.32513573        1.41193023
 C            1.77157925       -2.03572302        0.59708513
 C            2.97089013        1.03354221        1.33913980
 C            3.31511867       -0.22875392        0.86413560
 C            2.41053520        1.92736063        0.43140791
 C            0.50196041        2.09732620        1.88725716
 C            1.10966652        2.38755782        0.66862107
 C           -1.36420964        0.90274402        2.91167236
 C           -0.85051300        1.73362623        1.89897901
 C           -2.58377973       -1.14905302        3.21157889
 C           -2.50282309        0.13131494        2.66687059
 C           -1.97803047       -3.14746279        2.17201795
 C           -3.08958942       -2.23232547        2.39046680
 C           -0.49837187       -2.79459144        0.24841638
 C           -1.73630459       -3.19534476        0.74979279
 C           -0.40381274       -2.44292882       -1.10045851
 C            1.93102792       -1.93505326       -0.78863226
 C            0.79762497       -1.95287602       -1.60854481
 C            3.73018283       -0.32965102       -0.45054057
 C            3.10947679       -1.35875450       -1.26104277
 C            2.91909539        1.93805906       -0.86691300
 C            3.73679936        0.87459700       -1.25849120
 C            2.30862126        2.74964619       -1.82111982
 C            0.32295424        2.82351316       -0.39277753
 C            0.94574910        3.19280219       -1.58479209
 C           -1.63918609        2.03104194        0.78264371
 C           -1.05573047        2.59617530       -0.35845805
 C           -3.33961568        0.46826535        1.61069583
 C           -2.93884983        1.53191198        0.71211063
 C           -3.65782103       -1.91407031        1.09519161
 C           -2.94591893       -2.71318211        0.10938491
 C           -3.94988589       -0.58651886        0.80813480
 C           -1.56683801       -2.29683254       -1.85763706
 C           -2.85894646       -2.26030753       -1.19696575
 C           -1.59800468       -1.30901951       -2.91928561
 C            0.79014164       -1.26408808       -2.83042535
 C           -0.40209488       -0.72638758       -3.31450290
 C            3.19567502       -0.92256761       -2.64185403
 C            3.75175305        0.42255405       -2.63758797
 C            1.98383961       -0.88377688       -3.42627182
 C            2.43733416        2.44421615       -3.23768130
 C            3.05080171        1.19528083       -3.63927708
 C            2.00610103        0.34659358       -4.19361209
 C            0.22023256        3.09823838       -2.84321103
 C           -0.41216974        0.56677929       -3.84756177
 C            1.10623676        2.47634153       -3.81205227
 C            0.78807389        1.13337944       -4.26883004
 C           -1.79198023        2.65752646       -1.54164296
 C           -1.09850630        2.67846082       -2.81283447
 C           -1.44006544        1.43458628       -3.48500130
 C           -3.53192939        1.24945907       -0.58312648
 C           -3.95017691       -0.14334306       -0.57488848
 C           -3.49543737       -1.00493995       -1.56802405
 C           -2.76390697       -0.46653800       -2.70294627
 C           -2.93266574        1.77820907       -1.71413798
 C           -2.63240830        0.90809847       -2.84300718
