   70
C70 / DATE: 7/ 1/2024 / Origin: Program Fullerene / C70 from database
 C            1.30410171        0.10999483        5.17433995
 C            0.53169553       -1.10902947        5.03976686
 C            1.35851998       -2.09018610        4.36069709
 C            2.54694131       -0.07476282        4.44384404
 C            2.58131720       -1.42817444        3.93917680
 C            2.64753359        1.00156050        3.48665504
 C            0.56086008        1.17939919        4.52344887
 C            1.44217625        1.81081999        3.57768834
 C           -0.74488832       -0.75632814        4.44823695
 C           -0.67581803        0.63371494        4.02063361
 C           -1.35511516       -1.66477890        3.60069089
 C            0.80638131       -2.77900881        3.20703291
 C           -0.56069885       -2.72898075        2.98706654
 C            2.72323285       -1.62508074        2.50636903
 C            1.69543168       -2.55793993        2.07850410
 C            3.14223614        0.74825329        2.21212697
 C            3.02304113       -0.54591981        1.67639271
 C            3.05406415        1.81970731        1.33566522
 C            0.92133099        2.30261150        2.38547502
 C            1.87096370        2.66118632        1.44248685
 C           -1.09351101        0.96674527        2.72845051
 C           -0.32563562        1.83345175        1.93039474
 C           -2.22176786       -1.14799106        2.56348690
 C           -2.06559685        0.16799746        2.12766260
 C           -1.04957885       -2.89419958        1.63002725
 C           -2.31049825       -2.18768630        1.56391854
 C            1.15998705       -2.41981538        0.79655560
 C           -0.17202640       -2.76978331        0.55131171
 C            2.78211528       -0.69315585        0.30747787
 C            1.82968068       -1.62490687       -0.12829826
 C            3.29215639        1.60312531       -0.07293958
 C            3.21277512        0.30544771       -0.56278613
 C            1.45435714        2.99365088        0.10234405
 C            2.57164788        2.65969982       -0.76000064
 C           -0.70376900        2.03972685        0.58989905
 C            0.16859747        2.66693340       -0.30783754
 C           -2.53319325        0.48211860        0.85400315
 C           -1.88772405        1.47298948        0.10810939
 C           -2.75917975       -1.81783761        0.31568479
 C           -3.22531871       -0.51732034        0.17340336
 C           -0.73190150       -2.51988216       -0.71047167
 C           -2.12005868       -2.38110422       -0.78007510
 C            1.37468595       -1.59061712       -1.44326644
 C            0.05707457       -1.95734661       -1.72382715
 C            3.03980128        0.12779576       -1.93088902
 C            2.11501440       -0.89579984       -2.38779274
 C            2.32934478        2.50920854       -2.11054387
 C            2.82859555        1.30639423       -2.75240576
 C           -0.09429882        2.62099519       -1.67775023
 C            0.97081287        2.69822179       -2.58468486
 C           -2.26689330        1.66952982       -1.22703090
 C           -1.35056286        2.22320445       -2.13512682
 C           -3.83056722       -0.20114787       -1.02938766
 C           -3.41959610        1.02377302       -1.68624587
 C           -2.72220877       -2.18429802       -2.01257816
 C           -3.82415243       -1.23795867       -2.04507292
 C           -0.53454400       -1.59083934       -2.94359114
 C           -1.88110263       -1.89179894       -3.15668655
 C            1.46617436       -0.41568457       -3.59394334
 C            1.89821407        0.95642187       -3.80725479
 C            0.88182655        1.99260846       -3.84983354
 C            0.12698471       -0.71426165       -3.81766563
 C           -1.51613959        2.05014048       -3.51357748
 C           -0.37272694        1.62870288       -4.29417759
 C           -0.61072109        0.22175148       -4.54743404
 C           -3.64017048        0.83119268       -3.10823193
 C           -3.83036564       -0.59158995       -3.33862150
 C           -2.66864176       -1.07200748       -4.06413204
 C           -2.62395108        1.27201384       -4.02799012
 C           -2.04675084        0.08613378       -4.65687626
