   70
C70 / DATE: 7/ 1/2024 / Origin: Program Fullerene / C70 from database
 C            1.28213882        0.03391964        4.37063858
 C            2.58293767       -0.32907423        3.86892228
 C            2.53926936       -1.74166977        3.52172560
 C            0.43815736       -1.15083606        4.29881626
 C            1.13932645       -2.12577046        3.49475037
 C           -0.86730868       -0.70713267        3.86294788
 C            0.55651484        1.09474483        3.70459499
 C           -0.83791776        0.74267645        3.86288486
 C            0.99087994        1.56798970        2.46165605
 C            3.09095006        0.36637954        2.70756245
 C            2.25773877        1.22020230        1.97378385
 C            3.33481750       -1.91202729        2.31844397
 C            3.89497127       -0.60695044        1.99684438
 C            2.82869687       -2.70165743        1.29294545
 C            0.57649328       -2.54836353        2.29226411
 C            1.41542692       -3.05379456        1.29741532
 C           -1.48700077       -1.34401652        2.79426175
 C           -0.74231768       -2.19981358        1.96553681
 C           -2.64383653       -0.75364754        2.28724109
 C           -1.76406299        1.39919531        3.07704314
 C           -2.83284389        0.61760825        2.48072886
 C            0.05505973        2.15658024        1.60638156
 C           -1.27151171        2.27436514        2.02762417
 C            0.35917281        2.34064334        0.25643255
 C            2.59890578        1.50517739        0.64733393
 C            1.65777735        2.09501147       -0.21217000
 C            4.23813578       -0.32154269        0.68821750
 C            3.75614899        0.92255242        0.12168203
 C            3.21148385       -2.41344988       -0.07988629
 C            4.05261680       -1.33877381       -0.33632108
 C            0.95742695       -3.07524172       -0.08113549
 C            2.04614930       -2.63216664       -0.92910802
 C           -1.22556821       -2.50940732        0.69056987
 C           -0.32776528       -2.64765814       -0.36069651
 C           -3.31637508       -1.39220065        1.25354634
 C           -2.55985995       -2.28034569        0.39294001
 C           -4.22281267       -0.62680955        0.41558026
 C           -3.37019946        1.43126321        1.40401262
 C           -2.33147575        2.38198736        1.03796257
 C           -4.10790866        0.81946250        0.40300544
 C           -0.64892486        2.73999284       -0.62676465
 C           -1.99002048        2.53271122       -0.29770646
 C           -0.31536904        3.09966320       -1.92048725
 C            1.94968601        2.22879578       -1.58200964
 C            0.95716288        2.66751735       -2.45038425
 C            3.89805745        0.78449044       -1.30701080
 C            3.92543928       -0.64125275       -1.60117496
 C            2.88970947        1.37591579       -2.14681027
 C            1.77657758       -1.76552509       -1.98801588
 C            2.78022441       -0.92184310       -2.44984877
 C            2.40387062        0.34261745       -3.04471539
 C           -0.59826928       -2.02771720       -1.58105372
 C            0.45158090       -1.48951790       -2.33844718
 C           -2.92887078       -1.99319102       -0.98388297
 C           -4.07095261       -1.10017766       -0.94909332
 C           -1.92680151       -1.77071062       -1.92914877
 C           -3.90447988        1.23062843       -0.97556659
 C           -2.90919437        2.15867708       -1.28540038
 C           -4.06110334        0.05440144       -1.82160933
 C           -1.29968216        2.91627074       -2.97156605
 C           -2.58149248        2.33438554       -2.62653908
 C            0.66155026        1.81504221       -3.58857295
 C            1.11864060        0.50256552       -3.53878650
 C            0.18756288       -0.51963012       -3.31273934
 C           -0.69780840        2.07863932       -3.99917692
 C           -2.20989925       -0.97939556       -3.04273293
 C           -3.30745926       -0.01657046       -2.98320193
 C           -2.81700375        1.22859685       -3.53891955
 C           -1.11706601       -0.36704307       -3.77895476
 C           -1.56809624        0.94425444       -4.21665891
