   70
C70 / DATE: 7/ 1/2024 / Origin: Program Fullerene / C70 from database
 C            1.03485633       -0.07755415        4.64325726
 C            2.29800724       -0.37161261        4.01109411
 C            2.21735305       -1.73777278        3.52140575
 C            0.20505331       -1.26764544        4.51438635
 C            0.81891166       -2.09342823        3.49667580
 C           -1.14905141       -0.82059194        4.31000945
 C            0.25166298        1.03016798        4.13901704
 C           -1.12641903        0.63528564        4.30606783
 C            0.61463283        1.65550605        2.94572651
 C            2.72270761        0.44663802        2.89243032
 C            1.85965458        1.39136388        2.34964524
 C            2.93278296       -1.77926943        2.27334112
 C            3.41993639       -0.43935546        1.98642813
 C            2.38434405       -2.48346414        1.21651695
 C            0.19652614       -2.25670587        2.25317438
 C            0.98073302       -2.58340681        1.13668288
 C           -1.83593838       -1.22808306        3.10262214
 C           -1.13821443       -1.85914853        2.07095819
 C           -2.07760544        1.06870320        3.30732638
 C           -2.70737560       -0.12469730        2.76437943
 C           -0.35840109        2.36526226        2.22944945
 C           -1.71976237        2.07438335        2.41474177
 C            0.04539070        3.14460004        1.14781112
 C            2.11319826        1.84592834        1.05647795
 C            1.34583877        2.89279822        0.55633233
 C            3.54279326       -0.08029574        0.64530748
 C            2.94726543        1.10838391        0.20106603
 C            3.11499238       -2.40682617        0.04380173
 C            3.72685572       -1.12467980       -0.26456196
 C            2.54930622       -2.94074716       -1.16713857
 C            0.35946602       -2.73805007       -0.11047216
 C            1.11586597       -3.11097322       -1.21680665
 C           -1.67374453       -1.78473073        0.78135098
 C           -0.92395782       -2.22858888       -0.31257242
 C           -3.20613473       -0.05478827        1.47397202
 C           -2.85765357       -1.06327099        0.57555387
 C           -2.61845459        2.31085608        1.37843430
 C           -3.47684845        1.21250805        0.96869376
 C           -0.88322996        3.42630144        0.06529614
 C           -2.19639427        3.01297556        0.17981871
 C            1.22689511        3.08785904       -0.87778844
 C           -0.18451286        3.21453949       -1.18989741
 C            2.99490849        1.42262467       -1.15807125
 C            2.03736586        2.35651741       -1.72435710
 C            3.57673279       -0.89246285       -1.69017504
 C            2.93505818       -2.06163376       -2.25942377
 C            3.20019967        0.36477591       -2.13302944
 C            0.69328131       -2.68608646       -2.53459264
 C            1.76960562       -1.88360671       -3.10070983
 C           -1.45482155       -2.15572085       -1.60883188
 C           -0.60790896       -2.24995192       -2.72119058
 C           -3.43652712       -1.04427078       -0.68824478
 C           -2.76702704       -1.72011544       -1.78232652
 C           -3.75341608        1.36310057       -0.44505435
 C           -2.84525669        2.38057853       -0.95706239
 C           -3.95868608        0.21778332       -1.19877463
 C           -0.75273677        2.40370916       -2.17388499
 C           -2.12819272        2.12544804       -2.12695274
 C            1.45555502        1.73783585       -2.90331345
 C            2.17212554        0.49645671       -3.15952170
 C            1.46629794       -0.62274687       -3.61347105
 C            0.08014268        1.77807977       -3.11496344
 C           -0.82580078       -1.42105851       -3.81716960
 C            0.19069066       -0.43766138       -4.14093059
 C           -0.44683641        0.86243723       -4.01616173
 C           -3.13412643       -1.02042897       -3.00111199
 C           -3.65484281        0.27669798       -2.61385747
 C           -2.70742941        1.27916575       -3.06989028
 C           -2.11284188       -0.78706855       -3.99741305
 C           -1.87684448        0.64922838       -4.06952897
