   70
C70 / DATE: 7/ 1/2024 / Origin: Program Fullerene / C70 from database
 C            0.87355503        0.20129054        5.06054321
 C            2.19333249       -0.11067019        4.56247169
 C            2.20874033       -1.53505535        4.27381711
 C            0.07120042       -1.01200525        4.96311977
 C            0.82332882       -1.94466026        4.14986566
 C           -1.25280697       -0.62393988        4.52996581
 C            0.12155358        1.25105811        4.40834243
 C           -1.26353121        0.82344999        4.42552831
 C            0.61350692        1.85323509        3.24763260
 C            2.65695194        0.56227247        3.36393972
 C            1.77016934        1.35394808        2.63064459
 C            3.08337596       -1.72427390        3.13787684
 C            3.47241644       -0.40387966        2.66222755
 C            2.57576832       -2.44743176        1.98920009
 C            0.34154010       -2.32401531        2.89297865
 C            1.24240536       -2.85075122        1.95543751
 C           -1.75107288       -1.13738341        3.27150574
 C           -0.95993417       -1.96982658        2.48856192
 C           -2.09442738        1.17538253        3.29092944
 C           -2.46580855       -0.06009320        2.61460805
 C           -0.27942387        2.60721686        2.49666969
 C           -1.69323879        2.24495336        2.51028190
 C            0.06259619        2.98201807        1.13805229
 C            1.94530638        1.48614844        1.23988575
 C            1.14702690        2.37985327        0.51007662
 C            3.40920681       -0.43381914        1.21739299
 C            3.12310524       -1.79566195        0.81421004
 C            2.75361483        0.58111445        0.54284848
 C            2.48114337       -1.99852642       -0.40433499
 C            0.75789384       -3.30726005        0.73615071
 C            1.52031509       -2.99748450       -0.46494793
 C           -1.34417052       -2.16845941        1.16527261
 C           -0.63575593       -3.08632272        0.41442865
 C           -2.54898330       -0.07013839        1.22124429
 C           -2.14394282       -1.21235173        0.52208686
 C           -2.15167010        2.29845945        1.14056034
 C           -1.18601528        3.09075351        0.41053654
 C           -2.64342566        1.14391240        0.53632128
 C           -1.15449750        2.93751602       -0.96065485
 C            1.17000381        2.35702726       -0.89489411
 C            0.08421111        2.91078926       -1.58920161
 C            2.50418567        0.38066925       -0.80289636
 C            2.36125394       -0.92463509       -1.28829441
 C            2.00159395        1.43693472       -1.54034175
 C            1.74114613       -1.12405628       -2.52682310
 C            0.59306628       -3.00619473       -1.57804401
 C           -0.75041130       -3.06194871       -1.02489425
 C            0.81113086       -2.16450215       -2.66514484
 C           -2.31577799       -1.24952708       -0.86892936
 C           -1.72424432       -2.27719924       -1.62172019
 C           -2.70738959        1.12692795       -0.85502956
 C           -2.19372328        2.22712229       -1.54683653
 C           -2.80083838       -0.10034563       -1.50918395
 C           -2.30958204        2.27921154       -2.92898082
 C            0.09668346        2.94616388       -2.98182712
 C           -1.16573909        2.76156928       -3.68552583
 C            1.93077941        1.27963267       -2.91706195
 C            1.74423084       -0.06446267       -3.43500760
 C            1.10299847        2.18170319       -3.68649846
 C           -0.93989805        1.84596784       -4.79130246
 C            0.74584526        0.00253449       -4.48884524
 C            0.44227938        1.40690848       -4.72434715
 C           -0.26040045       -2.01607723       -3.54432624
 C           -1.60416591       -2.12356317       -2.99711617
 C           -0.26351125       -0.95008910       -4.52641924
 C           -3.02694500       -0.10745380       -2.88394161
 C           -2.85350373        1.13004135       -3.62551667
 C           -1.99961420        0.85520550       -4.77196157
 C           -2.44275172       -1.16497832       -3.67519841
 C           -1.65026100       -0.55194816       -4.72916739
