   70
C70 / DATE: 7/ 1/2024 / Origin: Program Fullerene / C70 from database
 C            1.56237855       -0.04305334        4.58591010
 C            0.76529714       -1.24904696        4.47142636
 C            1.25459347       -2.01144657        3.33651035
 C            2.59612785       -0.10515155        3.57191180
 C            2.45938446       -1.35392847        2.85452710
 C            2.52402708        1.11268648        2.80029767
 C            0.69932033        1.08217185        4.26317632
 C            1.26373653        1.76035474        3.12012328
 C           -0.62170359       -0.84517140        4.46578996
 C           -0.64912923        0.58216767        4.15821826
 C           -1.52367090       -1.66478877        3.80858654
 C            0.33229657       -2.50710351        2.41015520
 C           -1.02023852       -2.54585828        2.75621852
 C            0.70648889       -2.60181831        1.06418340
 C            2.69764222       -1.34805845        1.48852166
 C            2.01494595       -2.27079682        0.71149234
 C            2.87631529        1.05842464        1.46315776
 C            3.16551979       -0.17924828        0.87614865
 C            2.37519904        2.05428164        0.64680045
 C            0.43665285        2.13897000        2.06219964
 C            1.05552170        2.47552807        0.85817370
 C           -1.46701104        1.03120693        3.12200189
 C           -0.91879817        1.76683984        2.05283718
 C           -2.72961304       -1.04642271        3.30288750
 C           -2.66640437        0.35710358        2.93755696
 C           -2.02190215       -2.59899612        1.70536340
 C           -3.14042395       -1.78659497        2.12650419
 C           -0.27135403       -2.70535629        0.06466295
 C           -1.61690593       -2.51408428        0.38087967
 C            0.11097550       -2.81262993       -1.27489038
 C            2.43368154       -2.44549817       -0.59541269
 C            1.46420064       -2.84334117       -1.59625645
 C            3.45215815       -0.21673887       -0.49681221
 C            3.28147965       -1.42170112       -1.18153368
 C            2.95738464        2.18388168       -0.59994209
 C            3.50012696        0.98578931       -1.21442209
 C            2.28241011        2.95664102       -1.61490086
 C            0.27384700        2.90439673       -0.21292200
 C            0.88851437        3.28664082       -1.40656497
 C           -1.69202267        2.02471976        0.90494999
 C           -1.10507761        2.68663524       -0.18926047
 C           -3.37909242        0.50358070        1.69355862
 C           -3.66795645       -0.82894293        1.18133443
 C           -2.97835812        1.46807235        0.78303646
 C           -2.48223825       -1.96218020       -0.57080436
 C           -3.46885387       -1.04665819       -0.17680817
 C           -0.81729626       -2.53412427       -2.27785147
 C           -2.14598573       -2.06946923       -1.91593461
 C           -0.40238559       -1.79672882       -3.46483650
 C            1.90505188       -2.29942535       -2.86940297
 C            3.02656522       -1.41180889       -2.61098548
 C            0.94697484       -1.58718148       -3.69310459
 C            3.14971165        1.02046945       -2.63035293
 C            2.38438926        2.22926106       -2.87000959
 C            2.75829661       -0.14803599       -3.26449565
 C            1.42912158       -0.22534437       -3.85961970
 C            0.21153682        3.03966950       -2.66544938
 C            1.04331090        2.11194387       -3.41177069
 C            0.54388747        0.84920937       -3.73236650
 C           -1.83430195        2.89441670       -1.36215844
 C           -1.15208147        2.83075934       -2.64165953
 C           -3.55654431        1.36373584       -0.47535928
 C           -3.76199067        0.02883241       -1.01046237
 C           -3.09141805        2.21022461       -1.54234804
 C           -2.50363928       -1.00150952       -2.83625182
 C           -1.32249656       -0.68788360       -3.62576930
 C           -0.83449111        0.61943844       -3.66257058
 C           -1.68667530        1.67545816       -3.33959250
 C           -3.31737441        0.02744152       -2.39160996
 C           -2.98163748        1.39517389       -2.74460998
