   70
C70 / DATE: 7/ 1/2024 / Origin: Program Fullerene / C70 from database
 C            1.47929686        0.01774535        4.87195175
 C            0.72240277       -1.21329405        4.73381132
 C            1.57659580       -2.17782821        4.08263472
 C            2.65799033       -0.09811509        4.03000313
 C            2.77405031       -1.47966131        3.62934651
 C            2.56217276        0.91230768        2.99665152
 C            0.66458047        1.09672014        4.34129331
 C            1.42075529        1.75609682        3.29763795
 C           -0.54485758       -0.88609586        4.11188834
 C           -0.63204393        0.55654905        3.98562262
 C           -1.02831880       -1.65626903        3.06107058
 C            1.05351443       -2.90760995        2.94363283
 C           -0.24952583       -2.68253021        2.49744017
 C            2.93600522       -1.78271572        2.21959822
 C            2.11766748       -2.95075400        1.96252587
 C            2.79139861        0.58089319        1.66279203
 C            2.95328703       -0.75630600        1.27060937
 C            2.40172109        1.50584134        0.70185213
 C            0.71736431        2.28575615        2.22395521
 C            1.38050306        2.41188113        1.00631921
 C           -1.26455924        1.07744201        2.85962132
 C           -0.67172900        2.15942093        2.20568829
 C           -2.07588576       -1.12879709        2.31608932
 C           -2.14818577        0.26223426        2.14435342
 C           -2.70855245       -1.97623433        1.42321254
 C           -0.60999948       -3.19907376        1.24638611
 C           -1.90300748       -2.99063126        0.77588310
 C            1.78294385       -3.23443189        0.65129412
 C            0.39133599       -3.50848182        0.32493477
 C            2.76686277       -1.09660277       -0.07593128
 C            2.29615193       -2.37088858       -0.39636998
 C            2.69100779        1.24052109       -0.62645376
 C            2.69146072       -0.09076683       -1.04476226
 C            2.45536114        2.25097761       -1.54783317
 C            0.75300669        3.11130287       -0.02603071
 C            1.37322925        3.17718086       -1.27027053
 C           -1.36673175        2.76201980        1.16693303
 C           -0.62012453        3.32832875        0.05398024
 C           -2.85854195        0.81489215        1.06908185
 C           -2.53270094        2.09028211        0.62113666
 C           -3.61361469       -1.42742491        0.44049224
 C           -3.62714265        0.00518123        0.24174869
 C           -2.12470085       -2.86267822       -0.65698330
 C           -3.30727709       -2.05237904       -0.83571800
 C            0.20150328       -3.16889909       -1.07923314
 C            1.42041477       -2.53021739       -1.54135237
 C           -1.03161492       -2.67657374       -1.49956550
 C            2.19727538       -0.41432506       -2.31385483
 C            1.32107720       -1.48843735       -2.44227437
 C            2.41445446        1.92402011       -2.95855434
 C            2.23669509        0.53655354       -3.32733687
 C            0.55504335        3.26112184       -2.47034327
 C            1.33081679        2.68517487       -3.55681959
 C           -1.43780436        3.19893051       -1.14230701
 C           -2.60084602        2.38992481       -0.80330149
 C           -0.81945638        3.03369616       -2.37621852
 C           -3.61836285        0.24494112       -1.19292657
 C           -3.27884616       -1.01426375       -1.83601915
 C           -3.05712276        1.41976599       -1.69596353
 C           -1.07816862       -1.71480693       -2.52494114
 C            0.12365548       -1.31015822       -3.12752271
 C           -2.26748668       -1.00715451       -2.78323588
 C            1.22193595        0.48808241       -4.36721085
 C            0.67395471        1.82850150       -4.52029531
 C            0.10859503       -0.43287758       -4.20712799
 C           -1.49554295        2.32965836       -3.37263513
 C           -2.54981211        1.40170188       -2.99618548
 C           -2.22434150        0.11599361       -3.59646581
 C           -0.76826472        1.72020844       -4.47534374
 C           -1.10091765        0.30543390       -4.48408490
