   70
C70 / DATE: 7/ 1/2024 / Origin: Program Fullerene / C70 from database
 C            1.19473892        0.00223040        4.30851213
 C            2.47940698       -0.31833435        3.73023726
 C            2.47635196       -1.73486836        3.41248695
 C            0.37358650       -1.19857461        4.26147554
 C            1.10778541       -2.20649996        3.53268426
 C           -0.93033487       -0.81493950        3.77679667
 C            0.41909781        1.07768941        3.72294690
 C           -0.95634153        0.63581408        3.66914770
 C            0.91363962        1.79077421        2.64213133
 C            2.89851880        0.39204249        2.54024804
 C            2.14595616        1.45738088        2.05717654
 C            3.15190823       -1.90741075        2.13804096
 C            3.38544791       -0.58226300        1.58282284
 C            2.69613149       -2.90640618        1.29543896
 C            0.52493680       -2.82702839        2.43001004
 C            1.38812449       -3.48826447        1.55980915
 C           -1.53269188       -1.55796351        2.76826886
 C           -0.74108220       -2.40763488        1.97351834
 C           -2.70440233       -1.02418459        2.23905724
 C           -1.81825178        1.19820893        2.73043848
 C           -2.90255318        0.41255073        2.35408442
 C            0.01762610        2.57057849        1.91833157
 C           -1.33145565        2.17502290        1.83934627
 C            0.55177949        3.44749137        0.98403274
 C            2.40803813        1.89486538        0.76027045
 C            1.78995415        3.06604291        0.33399891
 C            3.15374163       -0.33861241        0.22889988
 C            2.89813712        0.97347788       -0.17421901
 C            2.77219394       -2.69596368       -0.13573748
 C            2.83655897       -1.39719362       -0.63344082
 C            0.88588891       -4.00147545        0.30689780
 C            1.83139710       -3.61693868       -0.73024677
 C           -1.16469678       -2.72763806        0.67076442
 C           -0.42774317       -3.58646969       -0.12567730
 C           -3.12213855       -1.40016588        0.90491265
 C           -2.19683325       -2.01191360        0.07842307
 C           -3.73791555        0.83039465        1.25521553
 C           -3.92853839       -0.32011051        0.38613123
 C           -2.15189710        2.64155651        0.79157772
 C           -3.29372419        1.93393698        0.43670097
 C           -0.30953895        4.04535320       -0.00592547
 C           -1.64027992        3.50958654       -0.16544687
 C            1.66031459        3.35285799       -1.08356753
 C            0.36533758        3.97078967       -1.29164572
 C            2.82349993        1.24642126       -1.53489040
 C            2.11406956        2.42387865       -2.00478909
 C            2.35082325       -1.12470166       -1.92068329
 C            2.53501954        0.15359098       -2.44535040
 C            1.06636308       -3.16368087       -1.86851586
 C           -0.34545441       -3.30511967       -1.54392720
 C            1.46639297       -2.01840073       -2.54796578
 C           -2.15365936       -1.71980044       -1.29655246
 C           -1.23663118       -2.40070462       -2.11874036
 C           -3.70116950        0.11253130       -0.97257695
 C           -3.47344888        1.54983285       -0.95372533
 C           -2.92946796       -0.66745517       -1.82243767
 C           -1.83301548        3.19317951       -1.57431426
 C           -0.55311799        3.37435715       -2.24369586
 C           -2.64992398        2.11716976       -1.92787189
 C            1.24672496        2.01137759       -3.09915118
 C            1.63809493        0.65802096       -3.47158329
 C           -0.10029567        2.39010794       -3.11515280
 C            0.57924161       -1.54520639       -3.50993103
 C           -0.83497688       -1.82291003       -3.32012588
 C            0.70427680       -0.19632515       -4.03042288
 C           -2.56745446       -0.07826978       -3.02622465
 C           -2.32266806        1.35572822       -3.05160836
 C           -1.04439344        1.56514727       -3.71474266
 C           -1.58200069       -0.71584686       -3.86543449
 C           -0.63300822        0.29928648       -4.29451485
