   70
C70 / DATE: 7/ 1/2024 / Origin: Program Fullerene / C70 from database
 C            1.65762909       -0.04432695        4.67609193
 C            0.85933294       -1.24961300        4.56771938
 C            1.25905952       -1.95410265        3.36129734
 C            2.65107590       -0.09157187        3.62675979
 C            2.46913298       -1.32019279        2.87441010
 C            2.56408124        1.15231727        2.88859834
 C            0.78354560        1.08268350        4.39222922
 C            1.26972498        1.73441474        3.19609319
 C           -0.52135452       -0.84709608        4.68094576
 C           -0.56745254        0.58430951        4.39241636
 C           -1.46707882       -1.64924700        4.06633271
 C            0.27175485       -2.33642314        2.45252051
 C           -1.04739983       -2.43205325        2.90345681
 C            0.53135360       -2.24292470        1.07824727
 C            2.68702574       -1.24814707        1.50806701
 C            1.81721727       -1.90979955        0.63946003
 C            2.93618584        1.11606788        1.55824889
 C            3.33393042       -0.11308443        1.03533649
 C            2.30910044        2.00363206        0.69449905
 C            0.39047071        1.99435807        2.14072644
 C            0.94304932        2.24594783        0.87900785
 C           -1.45983108        1.03436168        3.42402511
 C           -0.96659723        1.64673860        2.24885644
 C           -2.72343714       -1.02218782        3.72048744
 C           -2.69358006        0.39369230        3.40326737
 C           -2.13370244       -2.41069492        1.93965142
 C           -3.24406171       -1.70916233        2.55851175
 C           -0.52243069       -2.29828779        0.15711774
 C           -1.84288538       -2.17893176        0.59808410
 C           -0.25674912       -2.21377163       -1.21037027
 C            2.08121369       -1.83687914       -0.73048325
 C            1.06917653       -2.11993249       -1.64922158
 C            3.78733632       -0.13797346       -0.27132400
 C            3.21629232       -1.13763567       -1.15449155
 C            2.87326053        2.15039804       -0.56312181
 C            3.79436750        1.11667760       -0.99978224
 C            2.02848420        2.48998937       -1.68733656
 C            0.10651810        2.40593085       -0.23158847
 C            0.66240417        2.65701618       -1.49479743
 C           -1.81342306        1.86046942        1.14817541
 C           -1.27165606        2.19778208       -0.09929969
 C           -3.58556585        0.59711713        2.29312502
 C           -3.95019531       -0.71947635        1.77909626
 C           -3.12375540        1.38411729        1.17212420
 C           -2.78795225       -1.54855566       -0.22115160
 C           -3.71556490       -0.68250367        0.35492597
 C           -3.62689659        0.71400388       -0.00616283
 C           -1.31288814       -1.90069515       -2.07298350
 C           -2.44468889       -1.28846869       -1.54460392
 C           -1.09582906       -1.79920146       -3.44271940
 C            1.34579551       -1.99036768       -3.00928501
 C            0.25240970       -1.89197768       -3.95471242
 C            3.28107883       -0.60358552       -2.50547163
 C            3.52279171        0.82173097       -2.39254586
 C            2.49213094        1.73557231       -2.84591763
 C            2.34834119       -1.03064021       -3.43186858
 C            0.49384801       -0.71838406       -4.78555537
 C            1.55195571        1.28287120       -3.76512042
 C            1.65096164       -0.03581706       -4.23214703
 C           -0.14761471        2.63890333       -2.62482715
 C            0.33612529        1.96305821       -3.82208869
 C           -2.05611396        1.99257244       -1.24213752
 C           -3.02122849        0.99308497       -1.21156329
 C           -2.86068607       -0.07034505       -2.08747031
 C           -1.55938636        2.35071830       -2.48909446
 C           -1.76135977       -0.72896374       -4.16317977
 C           -0.75567246       -0.00181280       -4.92015680
 C           -0.80546949        1.38574909       -4.50713837
 C           -2.52595845        0.23684446       -3.39732927
 C           -1.95969653        1.55170373       -3.64286502
