   70
C70 / DATE: 7/ 1/2024 / Origin: Program Fullerene / C70 from database
 C            1.73443351        0.01012521        4.58581264
 C            0.95664829       -1.21389314        4.54763516
 C            1.31107876       -1.94040133        3.34037031
 C            2.68078789       -0.05213463        3.49661402
 C            2.51126867       -1.32556559        2.81555964
 C            2.51852071        1.15017926        2.69711593
 C            0.82821699        1.10949207        4.30241253
 C            1.22465916        1.70565737        3.04304048
 C           -0.42385298       -0.83657612        4.71720227
 C           -0.51124158        0.59103391        4.41606637
 C           -1.37914709       -1.66429494        4.15135488
 C            0.29499230       -2.31730611        2.46096017
 C           -1.00451567       -2.42387689        2.95692450
 C            0.50802200       -2.20882330        1.07837996
 C            2.71252952       -1.31355110        1.44794648
 C            1.79961704       -1.95999161        0.60860074
 C            2.83375647        1.03786355        1.35406471
 C            3.33990151       -0.18777561        0.94331827
 C            2.07613506        1.75186495        0.42451951
 C            0.27763692        1.86269315        2.03142157
 C            0.72724782        1.99344457        0.71047356
 C           -1.47749138        1.01023200        3.50928164
 C           -1.07601412        1.59011800        2.28484781
 C           -2.67046190       -1.07280963        3.88461258
 C           -2.69632015        0.34649709        3.58729291
 C           -2.12127748       -2.37585213        2.03226453
 C           -3.22742312       -1.75466389        2.73663962
 C           -0.57845392       -2.08238339        0.20271740
 C           -1.88504354       -2.04026723        0.70118196
 C           -0.35763155       -1.85476329       -1.15910759
 C            2.03874888       -1.88352273       -0.76856267
 C            0.95407313       -1.77588212       -1.65546374
 C            3.79859530       -0.26996074       -0.34694013
 C            3.27453646       -1.35700086       -1.14329663
 C            2.50894287        1.70587090       -0.90229908
 C            3.61892377        0.89872764       -1.16980037
 C            1.62136236        2.02052751       -1.93805978
 C           -0.19843559        2.09963923       -0.33023878
 C            0.24750960        2.13752417       -1.66578842
 C           -2.00956086        1.79860554        1.26105573
 C           -1.56820824        2.11295262       -0.03194419
 C           -3.67799145        0.54024873        2.55551093
 C           -4.02609176       -0.77918085        2.03378994
 C           -3.32835733        1.36306392        1.41968023
 C           -2.89522850       -1.42836595       -0.05138475
 C           -3.88630380       -0.68943866        0.59961745
 C           -3.97766553        0.72277634        0.29921118
 C           -1.44821555       -1.52645726       -1.97284233
 C           -2.63185258       -1.08997562       -1.37550173
 C           -1.24325511       -1.22173509       -3.31642676
 C            1.17744386       -1.50936531       -3.02073085
 C            0.09365500       -1.29487501       -3.86916332
 C            3.51595812       -0.98460898       -2.51756085
 C            3.87352698        0.43189518       -2.51200096
 C            2.44822444       -1.14061192       -3.47022379
 C            2.07584031        1.95830867       -3.26118645
 C            3.16437291        1.06202992       -3.59398420
 C            2.58414127       -0.01215789       -4.37605939
 C            0.18283425       -0.26313322       -4.89373969
 C            1.12266435        1.80694319       -4.33511090
 C            1.39205218        0.52507482       -4.98496967
 C           -0.68495039        2.16545454       -2.71980566
 C           -1.88428865       -0.03158365       -3.86590009
 C           -0.28005578        1.83914338       -4.01153326
 C           -0.88369065        0.67377315       -4.63130907
 C           -2.49236905        2.04659515       -1.07107915
 C           -3.59243575        1.10826819       -0.96120148
 C           -3.25072133        0.05210161       -1.88383884
 C           -2.02048780        1.92524924       -2.43312366
 C           -2.63981845        0.72881103       -2.99731940
