   70
C70 / DATE: 7/ 1/2024 / Origin: Program Fullerene / C70 from database
 C            1.05764658       -0.02892451        4.64055642
 C            2.28936200       -0.39094053        3.97588449
 C            2.25814577       -1.82364857        3.74200749
 C            0.24658605       -1.23450265        4.75268674
 C            0.89226191       -2.25914436        3.95973187
 C           -1.11564751       -0.87375626        4.43483199
 C            0.22061205        0.99716275        4.04771911
 C           -1.14202940        0.56614101        4.24729236
 C            0.55636615        1.55380595        2.81111862
 C            2.60118336        0.23819655        2.71247997
 C            1.77352368        1.23054220        2.19626736
 C            2.85561803       -2.07767037        2.44076533
 C            3.08385341       -0.78913091        1.80636400
 C            2.32535871       -3.10108054        1.67399523
 C            0.21824702       -2.85340397        2.89384491
 C            0.99256017       -3.59112522        2.00416533
 C           -1.73728069       -1.46797906        3.26575834
 C           -1.00270488       -2.31626341        2.44833986
 C           -2.08288444        0.84010992        3.18995183
 C           -2.53531422       -0.43139510        2.64385333
 C           -0.44852474        2.17722345        2.04767619
 C           -1.79470588        1.84673406        2.28179111
 C           -0.09109990        2.81879853        0.84808673
 C            1.94331304        1.57074294        0.86531420
 C            1.20307103        2.62185439        0.35478374
 C            2.83456714       -0.62739309        0.44280443
 C            2.50497694        0.64270651       -0.01676937
 C            2.38459350       -2.98859978        0.22996955
 C            2.53122855       -1.73158485       -0.36022912
 C            0.39152030       -4.07204073        0.77957794
 C            1.36605689       -3.87517023       -0.27942627
 C           -1.38319274       -2.44131568        1.10850406
 C           -0.84864935       -3.46473342        0.34492261
 C           -2.79896272       -0.48554043        1.27401232
 C           -2.12117765       -1.42678722        0.48523913
 C           -2.68759989        1.94519272        1.23107178
 C           -3.21587831        0.70347907        0.68784297
 C           -1.09446055        3.31700537        0.00171170
 C           -2.38223428        2.81393154        0.12383699
 C           -0.75334620        3.93042599       -1.20208083
 C            1.55980655        3.09897940       -0.89702161
 C            0.62878173        3.92476644       -1.62783361
 C            2.40621186        0.86092052       -1.38637928
 C            2.16891685        2.16401704       -1.82627906
 C            2.04510524       -1.51640260       -1.66255584
 C            2.14448701       -0.22919346       -2.22204344
 C            0.64345330       -3.45154625       -1.44874961
 C           -0.75641164       -3.29366097       -1.08743307
 C            1.19388815       -2.47080278       -2.25465037
 C           -2.08318298       -1.28674730       -0.91845406
 C           -1.46488360       -2.26811946       -1.70898486
 C           -3.22519658        0.83257618       -0.75221895
 C           -3.03226300        2.24235215       -1.04217520
 C           -2.56454862       -0.11359584       -1.52275391
 C           -1.57283317        3.66100546       -2.37405788
 C           -2.57299355        2.60947445       -2.29471826
 C            0.67637397        3.52340973       -3.02501353
 C            1.59656787        2.40295404       -3.13878364
 C           -0.68753223        3.35765016       -3.48559966
 C            1.70318495       -0.00859120       -3.52812025
 C            1.25813487        1.31503433       -3.93047461
 C            0.37471970       -2.07024356       -3.29501851
 C           -1.04162289       -1.92838870       -2.99292036
 C            0.77817263       -0.95177254       -4.10779108
 C           -2.18204442        0.22674949       -2.82490202
 C           -2.18637998        1.56574911       -3.22894603
 C           -1.08354458        2.07462496       -4.03420968
 C           -0.10082387        1.18735443       -4.45390250
 C           -1.49327031       -0.69564053       -3.59890541
 C           -0.42523216       -0.22483477       -4.46535812
