   70
C70 / DATE: 7/ 1/2024 / Origin: Program Fullerene / C70 from database
 C            1.21234834        0.05671990        4.31144116
 C            2.50432045       -0.26509148        3.75898491
 C            2.50375260       -1.69028177        3.48823391
 C            0.37149686       -1.13117227        4.19742317
 C            1.11650331       -2.11380280        3.45039439
 C           -0.90735082       -0.69363286        3.68582053
 C            0.46183026        1.14562074        3.72568074
 C           -0.92239229        0.74622027        3.84859353
 C            0.87939988        1.72423787        2.52284864
 C            2.91830011        0.39713531        2.53971116
 C            2.05258475        1.28019378        1.89264634
 C            3.30754232       -1.90638385        2.30469948
 C            3.62286948       -0.59286938        1.74785065
 C            2.90782430       -2.90958217        1.43682238
 C            0.60484021       -2.60533457        2.25078791
 C            1.49214414       -3.26394853        1.39926224
 C           -1.39949628       -1.22917997        2.49573832
 C           -0.60371188       -2.09951304        1.73636414
 C           -2.46132562       -0.56176997        1.88098843
 C           -1.85759822        1.45771709        3.13057388
 C           -2.81502010        0.70835777        2.34531214
 C           -0.06128824        2.45676597        1.79105023
 C           -1.38093615        2.50761556        2.25158864
 C            0.22830404        2.85666949        0.48465428
 C            2.24148218        1.52380123        0.53070233
 C            1.41791677        2.44840076       -0.11978353
 C            3.66142773       -0.42982593        0.36645123
 C            3.16665065        0.75002414       -0.19116477
 C            3.38191006       -2.84601318        0.07137874
 C            3.79420489       -1.55703892       -0.44702209
 C            1.12691611       -3.48718627        0.01585384
 C            2.32483459       -3.33945928       -0.79201449
 C           -0.98557092       -2.40807296        0.42437942
 C           -0.05485059       -2.94995157       -0.46535216
 C           -2.93102415       -0.98601659        0.63731547
 C           -2.20020072       -1.93838101       -0.08518813
 C           -3.94203103       -0.24084599        0.02018183
 C           -3.40557602        1.66477440        1.42885359
 C           -2.46513621        2.77410565        1.32028999
 C           -4.03556181        1.18017603        0.29557145
 C           -0.76513022        3.45940554       -0.29166469
 C           -2.16120866        3.30189000        0.07650385
 C           -0.69498187        3.37566596       -1.73984904
 C            1.64154192        2.76991539       -1.45709675
 C            0.50290447        3.00758883       -2.32265136
 C            3.29147347        0.91547617       -1.56683520
 C            2.57922409        1.98588701       -2.22742286
 C            3.34077961       -1.49840642       -1.82682902
 C            2.26837230       -2.47159220       -1.95859735
 C            3.18114006       -0.25590177       -2.41481795
 C           -0.11537875       -2.59346405       -1.80864944
 C            1.01921618       -2.05143952       -2.40983037
 C           -2.47040820       -2.16489010       -1.43815612
 C           -1.35388687       -2.30459834       -2.34976110
 C           -4.22610810       -0.40728667       -1.38939633
 C           -3.46967028       -1.38196312       -2.13469057
 C           -3.87309992        1.87503252       -0.97198097
 C           -2.88166445        2.84059765       -1.10173146
 C           -1.91678581        2.72721917       -2.18478893
 C           -4.02908121        0.88662386       -2.02591827
 C           -1.44280648       -1.20878450       -3.29471817
 C           -2.79167816       -0.68596571       -3.21983932
 C           -1.84309208        1.54502895       -2.92227294
 C           -2.96909072        0.73283234       -3.00810181
 C            0.49354330        1.92812392       -3.29293365
 C            1.84191202        1.39823530       -3.33923980
 C            2.02561363       -0.03447940       -3.26381598
 C            0.90592751       -0.84574661       -3.11041229
 C           -0.59169620        1.05350058       -3.31212297
 C           -0.36621357       -0.33168640       -3.38030303
