   70
C70 / DATE: 7/ 1/2024 / Origin: Program Fullerene / C70 from database
 C            1.58669444       -0.00103386        4.33266378
 C            0.77281748       -1.18170368        4.11949329
 C            1.42977212       -2.01431975        3.12896879
 C            2.68011929       -0.04574887        3.38086974
 C            2.56867880       -1.27299179        2.61566115
 C            2.68418734        1.20720351        2.65294692
 C            0.77339492        1.15761546        4.01036019
 C            1.48155402        1.93822030        3.01226848
 C           -0.58437608       -0.75041386        3.84369107
 C           -0.56357257        0.69435185        3.69135745
 C           -1.32550649       -1.49513595        2.93710673
 C            0.62616729       -2.69892395        2.22873829
 C           -0.75601534       -2.65891794        2.41921796
 C            1.12042760       -2.95343843        0.94986221
 C            2.76496042       -1.20454344        1.23997909
 C            2.07151535       -2.08527150        0.40202169
 C            3.04340104        1.18814092        1.31470050
 C            3.31301369       -0.03988721        0.70110525
 C            2.63301364        2.25342794        0.52075169
 C            0.74590372        2.53406515        1.99008868
 C            1.39744584        2.85679369        0.79432562
 C           -1.20954262        1.25967260        2.59806201
 C           -0.64145644        2.37731183        1.98460215
 C           -2.31366515       -0.84923590        2.19664554
 C           -2.16163950        0.50772433        1.90325075
 C           -3.16735936       -1.62253439        1.41748421
 C           -1.55475513       -3.50844666        1.66517299
 C           -2.86451326       -3.03441245        1.25434762
 C            0.36565654       -3.75549596        0.09652069
 C           -0.95221149       -4.18575448        0.53223771
 C            0.26980003       -3.38644092       -1.30446555
 C            2.10213593       -1.89033154       -0.98392228
 C            1.01370305       -2.30054425       -1.75012794
 C            3.67321906       -0.04699596       -0.64009732
 C            2.97787350       -0.95910591       -1.52882802
 C            3.23466309        2.40158259       -0.72129771
 C            3.81426916        1.22315080       -1.33403748
 C            2.55357207        3.13979994       -1.75992515
 C            0.68494741        3.52261981       -0.21279104
 C            1.22118512        3.63794103       -1.49466293
 C           -1.38230846        3.04960179        1.02690672
 C           -0.68416573        3.72316167       -0.05339792
 C           -2.75868002        1.04544240        0.75987838
 C           -2.54450809        2.38650292        0.46180219
 C           -3.60889382       -1.10981330        0.13221740
 C           -3.27104237        0.19253787       -0.22414338
 C           -3.05111062       -3.37841145       -0.14471518
 C           -1.86164708       -4.07549178       -0.59597857
 C           -1.11477169       -3.53633455       -1.71837034
 C           -3.46734096       -2.17767650       -0.84545933
 C           -1.68824158       -2.55421592       -2.51357157
 C           -2.90970379       -1.88283294       -2.08202029
 C            0.49291779       -1.43481881       -2.72043900
 C           -0.82948403       -1.55470311       -3.12415707
 C            2.52449320       -0.19149624       -2.67273543
 C            3.22019090        1.07722458       -2.65207905
 C            2.47326254        2.28007573       -2.93338851
 C            1.17497326       -0.25482541       -3.01383154
 C            0.40148192        3.27685456       -2.64124102
 C            1.07163745        2.16388922       -3.28285464
 C            0.44462724        0.91680775       -3.28860263
 C           -1.54100746        3.67177275       -1.22550287
 C           -2.67798970        2.82311265       -0.91092616
 C           -0.97350804        3.21825945       -2.48269392
 C           -3.12242914        0.51422512       -1.58048482
 C           -2.80695235       -0.49362112       -2.48509643
 C           -1.60867494       -0.34733134       -3.29469388
 C           -0.95529473        0.88093412       -3.29254928
 C           -2.78216148        1.81223771       -1.94117658
 C           -1.67314676        2.00093909       -2.86504209
