   70
C70 / DATE: 7/ 1/2024 / Origin: Program Fullerene / C70 from database
 C            1.20907029        0.06699958        4.78344089
 C            2.47225129       -0.02160870        4.08325436
 C            2.54657180       -1.35758357        3.52732900
 C            0.40685598       -1.08046333        4.37393316
 C            1.19872707       -1.86874876        3.45025907
 C           -0.87568079       -0.58152597        3.93279147
 C            0.40518034        1.25476142        4.58772697
 C           -0.94888863        0.81922872        4.29647526
 C            0.77532310        2.18276350        3.53432951
 C            2.74203571        0.90616583        2.99363179
 C            1.77442777        1.83189089        2.62291908
 C            3.27778632       -1.25687699        2.29222022
 C            3.42197011        0.15261312        1.96124607
 C            2.92236874       -2.08945012        1.24982004
 C            0.68635092       -2.17418542        2.18842467
 C            1.57413638       -2.48687402        1.15116413
 C           -1.35251822       -0.94611795        2.68342474
 C           -0.63545208       -1.84136514        1.87671874
 C           -2.32401537       -0.14243838        2.09942033
 C           -1.50080296        1.74943571        3.32227549
 C           -0.46847299        2.73446274        3.03882195
 C           -2.24474199        1.24319067        2.25650156
 C           -0.46816839        3.33294024        1.79321878
 C            1.62981796        2.17194640        1.27379305
 C            0.67860636        3.12233449        0.92084196
 C            3.26644860        0.51220954        0.62111216
 C            2.21862153        1.37942717        0.27778199
 C            3.60290976       -1.82888352        0.07728708
 C            3.69419196       -0.42985808       -0.31197751
 C            3.26255027       -2.59600003       -1.08857606
 C            1.05579564       -2.85750994       -0.09906308
 C            1.95083140       -3.19837473       -1.11310017
 C           -1.15123992       -2.17469420        0.62059187
 C           -0.28400266       -2.56437359       -0.40777335
 C           -3.03309121       -0.66211948        1.03413559
 C           -2.45370156       -1.78381494        0.31568656
 C           -3.60059161        0.24707338        0.05908149
 C           -2.46686781        2.06738506        1.14923484
 C           -1.64310817        3.17793036        0.96196548
 C           -3.19989692        1.58291750        0.06279474
 C            0.19208608        3.16917140       -0.44641817
 C           -1.21777702        3.51532815       -0.37833701
 C            1.64684232        1.33270885       -1.01008309
 C            0.60891680        2.19894371       -1.35402879
 C            3.23018579       -0.34647737       -1.67964113
 C            3.33404986       -1.68936332       -2.21714464
 C            2.10024456        0.41478355       -1.95836239
 C            1.52633319       -3.15019308       -2.49080929
 C            2.33303686       -2.12919061       -3.15464234
 C           -0.74532357       -2.59829976       -1.73986555
 C            0.14536947       -2.84278416       -2.78274094
 C           -2.87012842       -1.67959223       -1.06753301
 C           -3.70218198       -0.48758348       -1.19096113
 C           -1.96891130       -2.00671718       -2.07137250
 C           -3.74008825        0.20628991       -2.39128144
 C           -3.18061229        2.30105327       -1.13393618
 C           -2.03389963        3.14468097       -1.42673162
 C           -3.54028253        1.64348108       -2.37982115
 C           -0.18548798        1.92268959       -2.47173014
 C           -1.41377376        2.57798803       -2.60508696
 C           -2.49205522        1.95285860       -3.34179309
 C            1.30123514        0.10736058       -3.06949134
 C            1.39999512       -1.15313066       -3.66930604
 C            0.18227618       -1.90027374       -3.88276998
 C            0.13805995        0.84638508       -3.30979859
 C           -2.13700545       -1.46359578       -3.34691684
 C           -3.02031954       -0.32360447       -3.53240495
 C           -2.20846828        0.75287856       -4.08619261
 C           -0.95918241       -1.17578278       -4.14092602
 C           -0.84472173        0.26717782       -4.12303701
