   70
C70 / DATE: 7/ 1/2024 / Origin: Program Fullerene / C70 from database
 C            1.25269499        0.05103938        4.40517677
 C            2.50534521       -0.25208859        3.75936231
 C            2.50086472       -1.67694116        3.49567552
 C            0.40678222       -1.13616455        4.31176729
 C            1.11459032       -2.10163477        3.51129307
 C           -0.89278578       -0.68650854        3.86773081
 C            0.46052723        1.14767960        3.89453383
 C           -0.90485864        0.73760636        4.12843650
 C            0.76946131        1.72116638        2.65645642
 C            2.80957530        0.40496751        2.50567451
 C            1.87184864        1.25409110        1.92216082
 C            3.24760008       -1.89094774        2.27743639
 C            3.47262559       -0.57945041        1.67148128
 C            2.82276837       -2.91891245        1.45346600
 C            0.55229334       -2.55744415        2.32072333
 C            1.39769304       -3.24326895        1.45043283
 C           -1.40568961       -1.13641338        2.64867906
 C           -0.61423126       -1.94876676        1.81888876
 C           -2.47829957       -0.41933757        2.10328941
 C           -1.89464318        1.47530188        3.52551366
 C           -2.88245015        0.74937510        2.76130603
 C           -0.24320214        2.43956867        2.00500325
 C           -1.48119573        2.54841672        2.64339602
 C           -0.13891308        2.69373524        0.63025146
 C            1.92173484        1.46271354        0.54614484
 C            1.05720114        2.39243379       -0.02443014
 C            3.39197474       -0.45486067        0.28508795
 C            2.69168118        0.61927250       -0.27096910
 C            3.25904769       -2.88445401        0.07732209
 C            3.58817008       -1.59175453       -0.49139448
 C            0.99520900       -3.45050505        0.07584353
 C            2.19618481       -3.45148930       -0.72879295
 C           -0.96430812       -2.10503046        0.46934691
 C           -0.11287137       -2.77858125       -0.41369861
 C           -2.86968484       -0.64776649        0.77768750
 C           -2.14563551       -1.54003256       -0.01598825
 C           -3.83535349        0.16724639        0.17601142
 C           -3.59939357        1.77935835        2.04233487
 C           -2.66124558        2.88364584        1.87406635
 C           -4.14111111        1.46083082        0.74648205
 C           -1.27518379        2.99772198       -0.13650969
 C           -2.52332227        3.11423763        0.45717972
 C           -3.64023794        2.45628191       -0.18696095
 C           -1.22537553        2.81565856       -1.51445584
 C            1.19643399        2.71531353       -1.37082842
 C           -0.00198644        2.99568796       -2.14013308
 C            2.60891181        0.73678226       -1.66263127
 C            2.07268140        1.90690391       -2.19880903
 C            3.10148555       -1.60361965       -1.85419575
 C            2.16968252       -2.71750878       -1.97466916
 C            2.74982337       -0.40655617       -2.46524766
 C           -0.21579991       -2.55436065       -1.79010468
 C            0.94262461       -2.46132182       -2.57516082
 C           -2.44853705       -1.64906066       -1.37555804
 C           -1.42971284       -2.11687660       -2.30048842
 C           -3.78177396        0.38477650       -1.25551685
 C           -3.39342709        1.77327526       -1.44425324
 C           -2.21401062        2.03939762       -2.13637179
 C           -3.16830244       -0.57421241       -2.03822927
 C           -1.44944530       -1.23963155       -3.46116935
 C           -1.85486326        1.17112725       -3.16867876
 C           -2.34131939       -0.13715178       -3.14958778
 C            0.18654576        2.47116320       -3.47627357
 C            1.52326116        1.90648686       -3.54389482
 C           -0.74836721        1.47325718       -3.95564929
 C            1.97871497       -0.52763390       -3.61781042
 C            0.96643707       -1.56811786       -3.64258044
 C           -0.26557882       -0.97799916       -4.13180934
 C            1.43228812        0.65061768       -4.25144696
 C            0.02835241        0.38926587       -4.53134438
