   70
C70 / DATE: 7/ 1/2024 / Origin: Program Fullerene / C70 from database
 C            1.63753375       -0.24765610        5.25275206
 C            0.80379270       -1.43328703        5.28686626
 C            1.33361041       -2.36571334        4.31203024
 C            2.63339614       -0.43042108        4.20753014
 C            2.38796689       -1.69694402        3.56366119
 C            2.61477753        0.74980874        3.38515102
 C            0.79904580        0.86953244        4.85613109
 C            1.51020359        1.58998632        3.82872112
 C           -0.52513582       -1.05777282        4.83451856
 C           -0.51144219        0.36104887        4.52230777
 C            0.20755211       -2.89230478        3.56760390
 C           -0.91299965       -1.98718760        3.78445668
 C            0.45158327       -3.31187792        2.27446338
 C            2.34881813       -1.76298468        2.16894414
 C            1.66196494       -2.83583790        1.61695113
 C            2.81196081        0.62801669        2.01367423
 C            2.55944829       -0.60763043        1.38709030
 C            2.59417649        1.79076768        1.29478393
 C            0.78264014        2.24009426        2.84003469
 C            1.52691786        2.66466081        1.75352506
 C           -1.08938039        0.77051384        3.32563284
 C           -0.55070884        1.85801721        2.61820136
 C           -1.60069026       -1.48570552        2.67732228
 C           -1.91582546       -0.12751974        2.65478785
 C           -0.60928263       -3.18172324        1.29865990
 C           -1.57244350       -2.19679183        1.47083516
 C            1.41017742       -2.86555669        0.19704590
 C            0.03581537       -3.28973014        0.01609280
 C            2.33497655       -0.65439251       -0.01076814
 C            1.87756345       -1.83717662       -0.61188970
 C            2.53154983        1.74327764       -0.14454129
 C            2.40770389        0.51921761       -0.78133632
 C            0.84945966        3.17447790        0.58941064
 C            1.66712377        2.82854483       -0.55991509
 C           -1.21391535        2.28993873        1.45689886
 C           -0.52900826        3.04573288        0.49359238
 C           -2.70574953        0.35468953        1.62822000
 C           -2.42698576        1.68339024        1.12366165
 C           -2.18943438       -1.65460787        0.33629510
 C           -2.94927124       -0.50052364        0.48165832
 C           -0.61053972       -2.80437140       -1.09842635
 C           -1.77193681       -2.04159279       -0.94632255
 C            1.36969949       -1.79009573       -1.91387186
 C            0.19764259       -2.50898752       -2.17759433
 C            1.95530112        0.51902003       -2.10565018
 C            1.68974443       -0.70285906       -2.72230721
 C            1.05332586        2.73598224       -1.79578466
 C            1.44350113        1.70958322       -2.65184335
 C           -1.09987548        3.27302513       -0.75790591
 C           -0.23048806        3.25703522       -1.92564761
 C           -2.91876458        1.72867847       -0.24019393
 C           -3.17360331        0.36029158       -0.66558361
 C           -2.33657946        2.60824527       -1.13119892
 C           -2.24922285       -1.35511506       -2.07454310
 C           -2.75163654       -0.05484259       -1.92500043
 C           -0.44442282       -2.33381245       -3.38659718
 C           -1.77823855       -1.76296426       -3.32542480
 C            1.31034551       -0.73486338       -4.06371876
 C            0.27518568       -1.67278455       -4.44895655
 C            0.92431675        1.71367680       -3.94222318
 C            1.03511710        0.51419497       -4.74342416
 C           -1.03724272        2.86527541       -3.06632318
 C           -2.22576105        2.22279762       -2.52741994
 C           -2.52094094        0.91472359       -2.91225008
 C           -0.40670723        2.27064668       -4.14975683
 C           -1.92215837       -0.87600718       -4.46139653
 C           -0.70657804       -0.97521580       -5.25608931
 C           -0.20737697        0.36638741       -5.48500980
 C           -2.17746939        0.52335160       -4.20362500
 C           -1.16212231        1.29222582       -4.90697207
