   70
C70 / DATE: 7/ 1/2024 / Origin: Program Fullerene / C70 from database
 C            1.39960998       -0.15611151        4.53812909
 C            2.64730435       -0.40962504        3.84298346
 C            2.60555170       -1.76812691        3.33347753
 C            0.55196625       -1.32550430        4.37784391
 C            1.32390075       -2.34942158        3.69775163
 C           -0.70429050       -0.89048662        3.78868527
 C            0.62067052        1.00959743        4.16441822
 C           -0.71532741        0.56182229        3.80238695
 C            1.21579808        2.00396389        3.40044544
 C            3.02856640        0.46569235        2.74802894
 C            2.41821722        1.70511136        2.62746664
 C            2.98500132       -1.73455384        1.92870269
 C            3.19829925       -0.34929340        1.55516468
 C            2.32203962       -2.56387050        1.03476212
 C            0.68101743       -3.14514895        2.76250626
 C            1.37451408       -3.45944134        1.52902416
 C           -1.20164700       -1.56744326        2.67665453
 C           -0.68733617       -2.82422728        2.37936190
 C           -1.89099574       -0.85080108        1.69469944
 C           -1.40610150        1.23550542        2.80142624
 C           -2.19939183        0.49050869        1.92621972
 C            0.36581282        2.83748407        2.57101087
 C           -0.97908801        2.51422290        2.42608975
 C            2.22932031        2.26205832        1.30136704
 C            1.11965918        3.18939842        1.38127009
 C            2.70502448        0.10191216        0.33059987
 C            2.33200925        1.44129250        0.18208963
 C            2.25099752       -2.18773794       -0.30685432
 C            2.34284014       -0.83156924       -0.64744104
 C            1.68276191       -3.08368469       -1.20431632
 C            0.36352082       -3.97330554        0.62853134
 C           -0.90210692       -3.39091243        1.06085045
 C            0.64608077       -3.98678944       -0.72514206
 C           -2.12183538       -1.41019192        0.42800509
 C           -1.68385537       -2.70549883        0.13343755
 C           -2.67496285       -0.62454016       -0.58846113
 C           -3.04141838        1.15515610        1.04613787
 C           -3.25389359        0.59519627       -0.27539069
 C           -1.69067475        3.19828277        1.44734901
 C           -2.88638595        2.58696324        0.90269099
 C            0.41480364        3.47784114        0.22113192
 C           -0.94570186        3.76868936        0.33513508
 C            1.71816941        1.85128278       -0.99812712
 C            0.89874902        2.99106951       -0.99186035
 C            1.90478022       -0.38070146       -1.90016927
 C            1.72703377        0.99479262       -2.09905915
 C            1.29978957       -2.62844501       -2.52414857
 C            1.48217903       -1.29738672       -2.87692880
 C           -0.47134122       -3.87217217       -1.63760762
 C           -1.63381311       -3.12276206       -1.19691742
 C            0.02297790       -3.24359585       -2.84305338
 C           -2.36986673       -0.89997911       -1.91829611
 C           -1.97619305       -2.18997926       -2.25938151
 C           -1.03099008       -2.38748449       -3.35017581
 C           -2.17384684        0.15328530       -2.82114472
 C           -3.17451833        1.67381913       -1.24545612
 C           -2.95477218        2.90953617       -0.51192588
 C           -1.79751513        3.72086507       -0.84500666
 C           -2.47889658        1.46584559       -2.43463722
 C            0.23087032        3.36583284       -2.15122103
 C           -1.20895081        3.54049176       -2.08761287
 C           -1.76788999        2.54057614       -2.97919532
 C            1.33533493        1.48085756       -3.34229265
 C            0.52268837        2.67767015       -3.39347422
 C           -0.75391344        2.30623279       -3.98794860
 C            0.73884688       -0.84099741       -3.96268464
 C           -0.64384471       -1.28018230       -4.08326341
 C           -1.44463266       -0.07873410       -3.98848976
 C            0.76878527        0.56327949       -4.30232036
 C           -0.60949440        0.97457015       -4.52583124
