   70
C70 / DATE: 7/ 1/2024 / Origin: Program Fullerene / C70 from database
 C            1.19407812        0.02543673        4.34004077
 C            2.49047566       -0.20917327        3.74291699
 C            2.56153282       -1.62105532        3.43314615
 C            0.37417330       -1.15720275        4.11244712
 C            1.20629717       -2.14586210        3.46971741
 C           -0.83314573       -0.72977172        3.43902716
 C            0.43347207        1.15952618        3.87174443
 C           -0.92049899        0.70361705        3.61361875
 C            1.00225469        2.02820597        2.94682894
 C            2.83777732        0.52146558        2.53474055
 C            1.99265473        1.53449570        2.08691487
 C            3.30473982       -1.76013374        2.19536385
 C            3.35887360       -0.44030238        1.57828731
 C            2.98983925       -2.84236448        1.39069094
 C            0.74176895       -2.80968740        2.33987712
 C            1.70453055       -3.49014352        1.60407438
 C           -1.13959258       -1.25998298        2.19537430
 C           -0.42298954       -2.35437008        1.68938861
 C           -1.97819700       -0.53614938        1.35145032
 C           -1.67154212        1.45225353        2.71574153
 C           -2.29948750        0.80138711        1.64331107
 C            0.16514549        3.03044710        2.48264753
 C           -1.26286037        2.77004227        2.54126008
 C            0.42170149        3.62199702        1.18713499
 C            1.90944011        1.79742606        0.71383449
 C            1.21249746        2.92822355        0.27934862
 C            3.03111281       -0.30503370        0.23039842
 C            2.40596898        0.86684779       -0.21528720
 C            3.12964246       -2.70012728       -0.04249744
 C            3.09321199       -1.42648015       -0.60467199
 C            1.32860457       -4.12737560        0.36621681
 C            2.31929738       -3.75103729       -0.63126670
 C           -0.78419922       -2.88098521        0.43840217
 C            0.02997608       -3.82803029       -0.18714812
 C           -2.44733264       -1.13971497        0.18862930
 C           -1.79178206       -2.26586660       -0.31308773
 C           -3.38961088       -0.48120742       -0.59712717
 C           -3.03304928        1.55815071        0.71759978
 C           -3.67293708        0.91750231       -0.33769776
 C           -1.89464064        3.57687886        1.52514383
 C           -0.83674497        4.19666880        0.74087806
 C           -2.79728885        2.92916332        0.60219819
 C           -1.20490171        4.08496792       -0.65887360
 C           -2.53481342        3.49729035       -0.70960886
 C            1.02859109        3.15047388       -1.08079501
 C           -0.24184739        3.67325580       -1.56936568
 C            2.21308030        1.06477691       -1.58761095
 C            1.49353656        2.16546642       -2.03131076
 C            2.75029352       -1.30179089       -1.94633335
 C            2.30108625       -0.02109033       -2.44907455
 C            1.61043838       -3.47560828       -1.86739656
 C            0.20577567       -3.76803716       -1.62628331
 C            1.95191907       -2.33871321       -2.58845038
 C           -1.90755425       -2.57296922       -1.66952559
 C           -0.76283792       -3.11789067       -2.37139850
 C           -3.37855854       -0.67354504       -2.03996203
 C           -2.50838252       -1.60980214       -2.56683385
 C           -3.74632289        1.59771040       -1.62197426
 C           -2.92850465        2.77874496       -1.82947616
 C           -3.40849347        0.63843341       -2.65412840
 C           -0.63597550        2.88476495       -2.72626301
 C            0.44276708        1.95974374       -3.01775995
 C           -1.94933019        2.46002528       -2.86182972
 C           -2.21166355        1.10974818       -3.33007507
 C            1.21481599       -0.25817356       -3.38866556
 C            0.94503982       -1.68401834       -3.40807483
 C           -0.36791945       -2.12485073       -3.36226630
 C           -1.44340654       -1.15195452       -3.44887957
 C            0.16874420        0.66152171       -3.44448403
 C           -1.15874333        0.21384218       -3.52291085
