   70
C70 / DATE: 7/ 1/2024 / Origin: Program Fullerene / C70 from database
 C            1.60625720        0.13068279        4.50673934
 C            0.80958644       -1.08389642        4.48618593
 C            1.42547828       -2.01096157        3.55335495
 C            2.67167160       -0.02502536        3.53550813
 C            2.65339126       -1.39539188        3.06477396
 C            2.54326936        1.02637794        2.54636965
 C            0.75917320        1.21944252        4.05630396
 C            1.33340937        1.77071792        2.84468561
 C           -0.57034190       -0.70317482        4.27470460
 C           -0.60125790        0.72704660        3.99850131
 C           -1.37587340       -1.54002906        3.51532881
 C            0.62483477       -2.73176889        2.66220791
 C           -0.76228875       -2.56652312        2.68070175
 C            1.21548899       -3.24853016        1.51169707
 C            3.03316746       -1.63850724        1.75148184
 C            2.54292508       -2.79047741        1.14913950
 C            2.80940065        0.70196621        1.22336773
 C            3.36226443       -0.54817291        0.93910455
 C            2.15261238        1.39955607        0.20665570
 C            0.47850656        2.09380816        1.79775927
 C            0.96805991        2.08313273        0.49315323
 C           -1.42848976        1.18444572        2.97925152
 C           -0.90031978        2.04143479        2.00148290
 C           -2.46185811       -0.95257847        2.75196399
 C           -2.56103833        0.43216124        2.67289119
 C           -1.50238450       -2.62084775        1.42502995
 C           -2.62126535       -1.71900808        1.52597745
 C            0.43811740       -3.32131630        0.28168993
 C           -0.80322849       -2.71031148        0.23331229
 C            2.68258372       -2.95112418       -0.28354344
 C            1.34828830       -3.17657049       -0.82771995
 C            3.79745343       -0.78756521       -0.35802300
 C            3.53061335       -2.08868232       -0.95737892
 C            2.52117568        1.16437304       -1.11797209
 C            3.51606395        0.21499820       -1.37006463
 C            1.73157833        1.66585790       -2.16216786
 C            0.13339101        2.49431965       -0.54400983
 C            0.59181026        2.42383850       -1.86784237
 C           -1.74323009        2.50898415        0.99601337
 C           -1.19824192        2.83531801       -0.25390010
 C           -3.44535054        0.94521700        1.73781150
 C           -3.09653548        2.19099223        1.09748803
 C           -3.06722439       -1.04460221        0.39968053
 C           -3.85751539        0.06577209        0.65792114
 C           -1.11888587       -1.84708893       -0.82724253
 C           -2.29187604       -1.07349682       -0.77542726
 C            0.95054141       -2.47160138       -1.95733267
 C           -0.25990178       -1.75099717       -1.93719663
 C            3.28185112       -1.87100739       -2.36766300
 C            3.55621026       -0.47346801       -2.64174190
 C            1.94781686       -2.14174719       -2.87100512
 C            1.83777262        1.12168593       -3.44770973
 C            2.63678835       -0.06187976       -3.67116913
 C            1.68928104       -1.15244335       -3.88343040
 C           -0.59982597       -0.91171114       -3.01132780
 C            0.61771838        0.85633853       -4.17302785
 C            0.37611432       -0.55379456       -3.94597484
 C           -0.28044554        2.70695469       -2.92030685
 C           -0.43635830        1.70892856       -3.95978640
 C           -2.03746801        3.30566490       -1.26315100
 C           -1.62117340        3.17631353       -2.63874755
 C           -3.95060314        2.27496361       -0.06862586
 C           -4.27689561        0.90235028       -0.43659620
 C           -3.43432065        2.92066064       -1.25056473
 C           -2.60961115       -0.21800501       -1.84402676
 C           -1.71943371       -0.07939160       -2.91646068
 C           -1.71214323        1.10391445       -3.66756612
 C           -2.53205452        2.22223019       -3.26522062
 C           -3.69203718        0.66466067       -1.73378685
 C           -3.60518854        1.97658818       -2.34052794
