   70
C70 / DATE: 7/ 1/2024 / Origin: Program Fullerene / C70 from database
 C            1.57521028       -0.10982958        4.92371061
 C            0.70540537       -1.26738615        4.99373502
 C            1.23763118       -2.25964193        4.08402805
 C            2.56027249       -0.34430679        3.87615621
 C            2.33788808       -1.66672407        3.34607186
 C            2.50804335        0.77465636        2.96055291
 C            0.76378443        1.01127278        4.49995484
 C            1.50120000        1.69346445        3.46146901
 C           -0.60391419       -0.88126026        4.48664689
 C           -0.55873521        0.52402962        4.15676710
 C            0.12444901       -2.76763703        3.31006714
 C           -0.96549229       -1.81495751        3.44231096
 C            0.39136320       -3.22424648        2.03243637
 C            2.34466213       -1.85633548        1.96990342
 C            1.65233100       -2.96149047        1.49157342
 C            2.55275567        0.54470897        1.58024053
 C            2.54914548       -0.77281985        1.09659003
 C            2.13670603        1.58656145        0.73877930
 C            0.77778910        2.37349749        2.50575618
 C            1.43856545        2.64631491        1.32488061
 C           -1.09956043        0.95541380        2.94941416
 C           -0.59615917        2.13591837        2.41095404
 C           -1.56065333       -1.33861964        2.27221821
 C           -1.71042755        0.04357645        2.07818049
 C           -0.67790514       -3.26984813        1.15331956
 C           -1.56586347       -2.18475121        1.16031357
 C           -0.49192480       -4.01033574       -0.00286072
 C            1.88903752       -3.34409504        0.18161562
 C            0.86950548       -4.13254438       -0.48756780
 C            2.43962785       -0.99816667       -0.28271016
 C            2.32883975       -2.31413282       -0.74427611
 C            2.00876342        1.36124539       -0.63725316
 C            2.09008296        0.05510423       -1.13566366
 C            1.59046977        2.40884296       -1.47060306
 C            0.84019739        3.59425804        0.52088468
 C            1.09481195        3.57445774       -0.89786600
 C           -1.26238635        2.70919935        1.33204946
 C           -0.59001846        3.74350024        0.68366222
 C           -2.15215070        0.51945826        0.83829530
 C           -2.13195663        1.89635465        0.59383176
 C           -2.13541957       -1.73664043       -0.03356050
 C           -2.34908744       -0.37119684       -0.22558046
 C           -1.34940219       -3.77144989       -1.13981451
 C           -2.18649346       -2.58865393       -1.13097178
 C            0.87602734       -3.76716026       -1.88812910
 C            1.69580483       -2.57547013       -2.02839406
 C           -0.50256318       -3.70890794       -2.32190141
 C            1.68072541       -0.22427509       -2.44477835
 C            1.21487218       -1.50028912       -2.76565738
 C            1.33979373        2.16905070       -2.81873736
 C            1.43395643        0.81629872       -3.32788457
 C            0.20669894        2.81869516       -3.47440242
 C           -0.02981687        4.25406624       -1.52077090
 C           -1.11317017        4.28789268       -0.54797201
 C           -0.56147910        3.72730364       -2.75940646
 C           -2.71183687        2.38055559       -0.57763588
 C           -2.26441019        3.64587542       -1.13633911
 C           -1.97291827        3.43632756       -2.54253769
 C           -2.65800988        0.11129698       -1.50716775
 C           -2.92743509        1.46586600       -1.68334986
 C           -2.48826106        2.12785172       -2.90617218
 C           -2.11987058       -2.02189130       -2.46175330
 C           -0.91969007       -2.55449862       -3.08136376
 C            0.03340895       -1.64126244       -3.51289698
 C           -2.37310210       -0.66771253       -2.63269118
 C            0.37796739        0.63772391       -4.30123980
 C           -0.47450445        1.81128645       -4.26339443
 C           -1.80766059        1.38720781       -3.86230437
 C           -0.47149639       -0.52375513       -4.16122878
 C           -1.78401828       -0.05684120       -3.73953248
