   70
C70 / DATE: 7/ 1/2024 / Origin: Program Fullerene / C70 from database
 C            1.10332030       -0.12732960        4.62957853
 C            2.31686335       -0.46748521        3.92243766
 C            2.15265333       -1.81135897        3.38913738
 C            0.23641709       -1.29330859        4.58931783
 C            0.77257348       -2.19399380        3.58294389
 C           -1.12221542       -0.81746935        4.43592153
 C            0.32538074        1.00455301        4.16600745
 C           -1.07351490        0.62156969        4.22914262
 C            0.74969538        1.73620573        3.06116881
 C            2.74488949        0.38080054        2.82682968
 C            1.99820479        1.49324807        2.46965130
 C            2.67751824       -1.80968591        2.04498019
 C            3.21590632       -0.48582001        1.76985558
 C            1.96826908       -2.44381331        1.03564942
 C           -0.00819901       -2.51894557        2.47104201
 C            0.59769607       -2.69569017        1.21038796
 C           -1.92236722       -1.37200306        3.36741147
 C           -1.39954587       -2.38188802        2.56449196
 C           -1.93345717        0.94112399        3.09466015
 C           -2.61456932       -0.27529187        2.71171487
 C           -0.21947442        2.40329437        2.31590905
 C           -1.44049698        1.77006731        2.09867151
 C            0.20503569        3.34462651        1.39740706
 C            2.26008351        2.07655986        1.23413562
 C            1.57943890        3.25247926        0.94971696
 C            3.18595523       -0.02927919        0.45208659
 C            2.70251045        1.25982871        0.17791782
 C            2.45887115       -2.25716450       -0.24749153
 C            3.12772924       -0.99828949       -0.54484285
 C            1.63961181       -2.60035824       -1.38780657
 C           -0.19523632       -3.03850556        0.10540085
 C            0.28677360       -2.85205336       -1.19884775
 C           -2.18218461       -2.76044314        1.48603890
 C           -1.54107848       -3.31030266        0.31306195
 C           -2.99383783       -0.46744898        1.38851815
 C           -3.15379919       -1.79317415        1.00479413
 C           -1.91380009        1.63047426        0.78934644
 C           -2.62858258        0.48295507        0.41678455
 C           -0.59876928        3.54947199        0.21218077
 C           -1.46995960        2.53112425       -0.18433398
 C            1.63978316        3.80570689       -0.38336863
 C            0.28151032        4.17765909       -0.75023157
 C            2.46514244        1.64354444       -1.15336331
 C            2.15467003        2.96938733       -1.44214748
 C            2.77414726       -0.62226827       -1.89829078
 C            2.06234288       -1.74543970       -2.48116141
 C            2.33572345        0.67114884       -2.15325180
 C            1.17796076       -1.50614839       -3.51438551
 C           -0.59388080       -2.70388582       -2.28206679
 C           -0.14489293       -2.10561920       -3.45966612
 C           -2.47780469       -3.13524885       -0.77638288
 C           -3.42302263       -2.10157150       -0.37406322
 C           -1.96897155       -2.75694818       -2.07417846
 C           -2.83647529        0.21119021       -0.94491248
 C           -3.32734184       -1.03432677       -1.34190167
 C           -2.79121287       -1.64945780       -2.53716747
 C           -1.64136143        2.23286968       -1.54315505
 C           -2.28048765        1.04840143       -1.91669810
 C            0.11162019        3.86236493       -2.14438390
 C            1.35524225        3.26363306       -2.61140467
 C           -0.95297685        2.95743702       -2.52207335
 C            1.57096806        0.92113411       -3.30258444
 C            1.02813795       -0.14905399       -4.01295024
 C            0.99129615        2.17320411       -3.49000793
 C           -0.44929288        2.25332263       -3.68096714
 C           -1.05253640       -1.22618168       -4.17772635
 C           -2.28545092       -0.82486185       -3.52410514
 C           -2.17302065        0.59562652       -3.23848118
 C           -0.32483809       -0.01943212       -4.52638392
 C           -1.11928637        1.11653398       -4.09351700
