   70
C70 / DATE: 7/ 1/2024 / Origin: Program Fullerene / C70 from database
 C            1.29351950       -0.07421862        4.49821972
 C            2.61982617       -0.29949314        3.95572366
 C            2.65736356       -1.65400143        3.43504601
 C            0.48024246       -1.24168182        4.19181597
 C            1.30113383       -2.17659542        3.45041855
 C           -0.75449880       -0.77966783        3.59076771
 C            0.55413290        1.10097111        4.07654386
 C           -0.77612287        0.66917025        3.68223951
 C            1.19116803        2.07590415        3.32064820
 C            3.11821718        0.58726437        2.91824645
 C            2.45923475        1.78191008        2.66316460
 C            3.37123430       -1.62818180        2.17076370
 C            3.55494419       -0.23348432        1.79957951
 C            2.98358140       -2.52570586        1.18729717
 C            0.79660949       -2.74352142        2.28400343
 C            1.70505544       -3.20333240        1.33149048
 C           -1.20543797       -1.37925947        2.41889369
 C           -0.52517895       -2.48644144        1.90179625
 C           -2.10043806       -0.67372122        1.60938426
 C           -1.46068921        1.37744239        2.70101372
 C           -2.34707811        0.67388411        1.88311498
 C            0.39761994        2.86825068        2.40035324
 C           -0.96142272        2.61267767        2.26753033
 C            2.36318305        2.25404793        1.29408983
 C            1.17476577        3.07590269        1.18913545
 C            3.27755209        0.16266635        0.48980580
 C            2.67303214        1.40331298        0.24559091
 C            3.09710935       -2.13194182       -0.20544221
 C            3.32240725       -0.79592873       -0.52772515
 C            1.24165189       -3.55440500        0.00040434
 C            2.09722708       -2.87498234       -0.95845416
 C           -1.03473872       -3.11975475        0.77379950
 C           -0.11711107       -3.61899923       -0.23935269
 C           -2.61959688       -1.26957171        0.45468408
 C           -2.16780213       -2.53241733        0.08073507
 C           -3.36420817       -0.51432403       -0.45747380
 C           -3.22893141        1.38925801        1.08707648
 C           -3.72231772        0.79460738       -0.14082077
 C           -1.61126531        3.25955950        1.22366650
 C           -2.91108720        2.77316955        0.81016677
 C            0.49343931        3.15187588       -0.02602304
 C           -0.84213196        3.54483581        0.01887289
 C            2.15067961        1.68191653       -1.01231674
 C            0.95431472        2.40998204       -1.12380958
 C            3.09003846       -0.39993498       -1.84054294
 C            2.63561928        0.95312357       -2.08621766
 C            1.55365472       -2.28599987       -2.09961787
 C            2.29448686       -1.26883827       -2.69251408
 C           -0.61916036       -3.18892244       -1.52880330
 C           -2.01177972       -2.84208864       -1.32938722
 C            0.17517895       -2.38884030       -2.35193677
 C           -3.46669535       -0.93979821       -1.78275952
 C           -2.62632895       -2.02481213       -2.25728165
 C           -3.51137008        0.05482674       -2.83809066
 C           -3.69519853        1.82189071       -1.17793262
 C           -3.02149473        2.97687387       -0.62066630
 C           -1.70120254        3.31005992       -1.12472488
 C           -3.37185929        1.44990218       -2.47366847
 C            0.15177990        2.29084464       -2.27224124
 C           -1.20820315        2.60343186       -2.21357076
 C           -2.11261471        1.92236720       -3.03471783
 C            1.90861179        0.94846473       -3.33494793
 C            1.69290299       -0.44194635       -3.71249617
 C            0.62891783        1.61950401       -3.39460069
 C           -0.44502510       -1.57923192       -3.31719469
 C           -1.83811866       -1.50786779       -3.36361413
 C           -2.46423307       -0.26776483       -3.79376467
 C           -1.63380160        0.91138772       -3.96464064
 C            0.28465640       -0.60143750       -3.99133904
 C           -0.26794946        0.73782773       -4.11739275
