   70
C70 / DATE: 7/ 1/2024 / Origin: Program Fullerene / C70 from database
 C            1.65449778        0.01928278        4.49360192
 C            0.83257808       -1.17506058        4.46013527
 C            1.30559776       -2.02218784        3.37842324
 C            2.61981230       -0.07643858        3.41258953
 C            2.44478690       -1.35661126        2.76550881
 C            2.49852921        1.11179557        2.59599221
 C            0.78878787        1.14929276        4.20937858
 C            1.35556413        1.86048983        3.08788568
 C           -0.55414056       -0.75333682        4.43955172
 C           -0.56822546        0.65916254        4.08727961
 C           -1.46755610       -1.58987115        3.82219395
 C            0.36081648       -2.64756981        2.56025354
 C           -0.96434792       -2.67882690        2.99548989
 C            0.66263388       -2.84987325        1.20351523
 C            2.56891394       -1.42085745        1.38858758
 C            1.92304812       -2.46063328        0.73852482
 C            2.65138194        0.99354850        1.21408161
 C            2.88903819       -0.26738733        0.65826484
 C            2.09148751        1.98207766        0.40609413
 C            0.50702638        2.40511078        2.14155614
 C            1.07996877        2.78851766        0.94294891
 C           -1.34373494        1.08374569        3.00685115
 C           -0.85891350        2.08765667        2.15067784
 C           -2.56550972       -0.99394802        3.08786645
 C           -2.44968842        0.31720204        2.62876905
 C           -2.01486661       -3.02280596        2.06123010
 C           -3.05644179       -2.01587474        2.18127596
 C           -0.35400921       -3.11163587        0.26941626
 C           -1.68125376       -3.14348964        0.66136585
 C           -0.09014290       -2.91648417       -1.08046596
 C            2.26581541       -2.69769282       -0.58291893
 C            1.21776171       -3.09417197       -1.49681898
 C            3.03278208       -0.38514786       -0.72791654
 C            3.03323384       -1.67525448       -1.26401573
 C            2.26645565        1.90216029       -0.97649670
 C            2.74003096        0.71717668       -1.54740150
 C            1.73210791        2.89522361       -1.79747361
 C            0.32152583        3.59558169        0.11795261
 C            0.73319758        3.78873282       -1.25358104
 C           -1.66872214        2.56818563        1.10924963
 C           -1.11645272        3.41650537        0.14654311
 C           -3.22286768        0.71568387        1.54407311
 C           -2.84138498        1.89376366        0.78865065
 C           -3.45512628       -1.62300449        0.84322202
 C           -2.63376531       -2.36209598       -0.10386571
 C           -3.70737432       -0.28346937        0.59896170
 C           -0.96905524       -2.12145036       -1.83312786
 C           -2.19472152       -1.73402675       -1.27117191
 C           -0.56603968       -1.57348592       -3.05937007
 C            1.61096828       -2.67281514       -2.82226474
 C            2.82712903       -1.88466412       -2.68249993
 C            0.67576378       -1.89612742       -3.60289831
 C            2.71887069        0.58356775       -2.93940763
 C            2.70461942       -0.73218029       -3.54202349
 C            1.44697966       -0.85619676       -4.26202806
 C            1.30569632        2.55649651       -3.14249895
 C            1.79445449        1.39224156       -3.71320828
 C            0.87391166        0.47393292       -4.36966701
 C           -0.45180451        3.69079302       -2.08981747
 C           -1.56365283        3.30936338       -1.23534224
 C           -0.11584007        2.85985667       -3.22942149
 C           -3.15948797        1.64442204       -0.61017190
 C           -3.48099311        0.23385516       -0.73468252
 C           -2.79158190       -0.53279364       -1.66786792
 C           -2.39260226        2.25130219       -1.59978973
 C           -1.24432905       -0.46990077       -3.56751365
 C           -0.49303438        0.62301049       -4.17021670
 C           -1.00504484        1.86938053       -3.62357885
 C           -2.33831417        0.10677956       -2.81227507
 C           -2.15474769        1.55147291       -2.78616418
