   70
C70 / DATE: 7/ 1/2024 / Origin: Program Fullerene / C70 from database
 C            1.40434645        0.06267623        5.08674829
 C            0.61276884       -1.08731083        4.68621326
 C            1.49579421       -1.98373950        3.98037984
 C            2.62847988        0.04343287        4.30224390
 C            2.73935167       -1.26951476        3.71548120
 C            2.60694614        1.19623642        3.42111491
 C            0.66764852        1.25290443        4.71050824
 C            1.53558601        2.06493632        3.88031209
 C           -0.57162514       -0.60201837        3.99892697
 C           -0.61013910        0.83952323        4.15592806
 C           -0.93701764       -1.14538529        2.76587047
 C            1.04747506       -2.53269978        2.71819884
 C           -0.21460684       -2.21665868        2.22169425
 C            2.99345319       -1.37312735        2.29244928
 C            2.16396371       -2.45117499        1.80275818
 C            2.80624780        1.03736713        2.04618087
 C            3.09993899       -0.22876201        1.50449850
 C            2.44650818        2.09123781        1.19845190
 C            0.92948570        2.90079309        2.95754700
 C            1.51542114        3.03015833        1.63458781
 C           -1.14788688        1.59377694        3.12147666
 C           -0.50488482        2.77878709        2.75726784
 C           -1.79034395       -0.40666970        1.93612905
 C           -1.96404638        0.96057951        2.18387613
 C           -2.23299430       -0.97402507        0.73213937
 C           -0.47719871       -2.58032341        0.90589291
 C           -1.68324063       -2.19440561        0.34004479
 C            1.87540855       -2.47604004        0.44911846
 C            0.59864569       -2.87077494        0.06086543
 C            3.05728255       -0.40688672        0.11942349
 C            2.57571348       -1.61966635       -0.39323283
 C            2.67909307        1.98405896       -0.16665140
 C            3.11982770        0.71422097       -0.69950310
 C            1.70080708        2.53384621       -1.09639121
 C            0.45294222        3.44463716        0.72845028
 C           -0.79910546        3.37725920        1.46774754
 C            0.49919577        3.02944240       -0.60355452
 C           -2.59829554        1.75293652        1.23775206
 C           -1.94019180        2.97429591        0.80141175
 C           -2.97588410       -0.21294349       -0.18298445
 C           -3.18823540        1.13900021        0.06468616
 C           -3.20603526       -0.69661483       -1.47565759
 C           -2.02779044       -2.75110699       -0.88275482
 C           -2.92138801       -2.02850409       -1.76200218
 C            0.35419267       -3.08584934       -1.29467271
 C           -0.96033259       -3.30220722       -1.69910158
 C            2.38134271       -1.77075632       -1.76259605
 C            1.29412873       -2.62753042       -2.22098690
 C            2.66532797        0.63650051       -2.07616163
 C            1.70016702        1.70339349       -2.28576370
 C            2.41748334       -0.60542342       -2.63088548
 C            0.49649190        1.42146779       -2.92451026
 C           -0.68930403        2.77331034       -1.29687094
 C           -1.91171156        2.92937878       -0.64307627
 C           -3.02331364        2.08467026       -1.02505525
 C           -0.66378927        2.09607118       -2.52270732
 C           -3.42523706        0.21455873       -2.51434250
 C           -3.05176487        1.59947968       -2.31631146
 C           -1.87947718        1.81414987       -3.14609808
 C           -3.00807113       -0.10294058       -3.86862841
 C           -1.93049344        0.81929315       -4.19991969
 C           -2.61074767       -2.44107682       -3.12334028
 C           -1.32592349       -3.12015846       -3.09304589
 C           -2.55661834       -1.44376902       -4.17152618
 C            0.85889390       -2.11110128       -3.51000596
 C            1.33665125       -0.74165704       -3.59034368
 C            0.41514893        0.29116803       -3.74855485
 C           -0.74860839        0.02979419       -4.46389517
 C           -0.41802427       -2.40325401       -3.96959490
 C           -1.17783269       -1.35126620       -4.62564856
