   70
C70 / DATE: 7/ 1/2024 / Origin: Program Fullerene / C70 from database
 C            1.17860456        0.00553929        4.60277813
 C            2.38724289       -0.42817128        3.93720846
 C            2.21546871       -1.82868561        3.57954857
 C            0.31957611       -1.15994024        4.72892367
 C            0.81882759       -2.15443828        3.80083222
 C           -1.03941054       -0.70256232        4.58221546
 C            0.38334244        1.04918389        3.98241738
 C           -0.99652728        0.71948188        4.26094740
 C            0.72228447        1.50071962        2.70818379
 C            2.79754509        0.26546977        2.73592656
 C            2.02079759        1.30454957        2.22415668
 C            2.77258174       -2.01704916        2.25083272
 C            3.28518742       -0.73261552        1.80675675
 C            2.07714229       -2.80074651        1.34670758
 C            0.03985447       -2.55489611        2.71131323
 C            0.68183759       -3.12568369        1.61506772
 C           -1.86981154       -1.32105329        3.57290730
 C           -1.29298109       -2.13215718        2.58956082
 C           -1.98879500        0.94486743        3.22696281
 C           -2.77407636       -0.27309674        3.15353875
 C           -0.28148876        1.95007137        1.83762698
 C           -1.61369195        1.56225171        2.03360920
 C            0.08501807        2.54061950        0.62743091
 C            2.32312564        1.74683318        0.94023493
 C            1.44342037        2.62616735        0.31624653
 C            3.25364351       -0.39904793        0.45866869
 C            3.16094081        0.95233900        0.15178453
 C            2.19525655       -2.50629190       -0.06921969
 C            2.79242878       -1.32051364       -0.48926797
 C           -0.00427592       -3.20427091        0.34051368
 C            0.96472245       -2.92711297       -0.70645910
 C           -1.97538483       -2.28113353        1.37280661
 C           -1.28586325       -2.68662463        0.22050403
 C           -3.51226210       -0.48987594        2.01002154
 C           -3.23737440       -1.69664062        1.25464114
 C           -2.45985526        1.43099723        0.92863637
 C           -3.55120901        0.56889219        1.02290000
 C           -0.87088827        2.65529574       -0.38689509
 C           -2.02742025        1.88286074       -0.32108070
 C           -0.52851521        3.24176252       -1.59886114
 C            1.84749935        3.23572415       -0.86612090
 C            0.84162401        3.65535648       -1.81956023
 C            3.40231866        1.32451006       -1.15978372
 C            2.92632909        2.61695762       -1.61046399
 C            2.53258478       -0.86735730       -1.78757060
 C            3.09285757        0.34914519       -2.18641694
 C            0.54404138       -2.25156943       -1.84180649
 C            1.43352880       -1.38447149       -2.48513501
 C           -1.73974350       -2.31885713       -1.05223583
 C           -0.82491424       -2.16027911       -2.09944203
 C           -3.80815336       -1.47822456       -0.05831205
 C           -4.07003171       -0.04769748       -0.17513286
 C           -3.04152077       -1.85843674       -1.22233302
 C           -2.60588261        1.39926020       -1.50755003
 C           -3.54822160        0.37715464       -1.45356604
 C           -3.29126623       -0.82931471       -2.21270253
 C           -1.01291520        2.63116925       -2.82183953
 C           -1.95008856        1.60608886       -2.72367650
 C            1.24675975        3.18943884       -3.13729272
 C            2.50202266        2.47834948       -2.99168220
 C            2.55774662        1.06564749       -3.33415663
 C            0.11964924        2.49559833       -3.72945590
 C            1.08216970       -0.84304255       -3.71878837
 C            1.52256955        0.49645236       -4.06247691
 C            0.33367756        1.28278732       -4.37384144
 C           -1.25833292       -1.59870155       -3.29904780
 C           -2.42680139       -0.73672701       -3.28721625
 C           -1.95435525        0.58115911       -3.67367475
 C           -0.28581852       -0.97527617       -4.17859527
 C           -0.77635102        0.35986184       -4.49075091
