   70
C70 / DATE: 7/ 1/2024 / Origin: Program Fullerene / C70 from database
 C            1.65858564       -0.03654066        5.06963648
 C            0.80312033       -1.19191321        5.26528768
 C            1.27630395       -2.23906264        4.38307233
 C            2.59399303       -0.34250562        3.99717157
 C            2.35117685       -1.69794452        3.56314859
 C            2.49959646        0.71278612        3.01269974
 C            0.82180467        1.05512068        4.61073566
 C            1.47043274        1.63677649        3.45737699
 C           -0.53689652       -0.83796373        4.82657042
 C           -0.52889968        0.56085143        4.43567145
 C            0.11753446       -2.79176698        3.70421861
 C           -0.95937052       -1.82239671        3.84327201
 C            0.32702636       -3.35613136        2.45899150
 C            2.32830526       -1.97735014        2.20006091
 C            1.59305509       -3.08502180        1.80186364
 C            2.53826415        0.38858728        1.65542018
 C            2.57193973       -0.95831429        1.26106940
 C            2.07905029        1.34980704        0.74893401
 C            0.67552300        2.19653526        2.47370131
 C            1.26047062        2.37340702        1.23381927
 C           -1.20416031        0.92366924        3.27445037
 C           -0.70701795        1.98264671        2.50903075
 C           -1.62377515       -1.37046328        2.70261864
 C           -2.00092059       -0.02878836        2.64362066
 C           -0.69087807       -3.19141623        1.43799608
 C           -1.55798097       -2.11503349        1.51689689
 C            1.38716312       -3.30914657        0.39640989
 C           -0.04238298       -3.45887708        0.17536436
 C            2.50757209       -1.26063722       -0.10859660
 C            2.08793574       -2.53982423       -0.51236617
 C            2.10332012        1.06547885       -0.61859060
 C            2.49546217       -0.20587944       -1.03501859
 C            1.56617876        1.98054365       -1.53675556
 C            0.58518702        3.18450994        0.34672757
 C            0.89165664        3.09818182       -1.06048152
 C           -1.47373291        2.44482384        1.43155490
 C           -0.85828858        3.26062955        0.48257466
 C           -2.79727202        0.38564511        1.58965820
 C           -2.61180590        1.72881045        1.06796814
 C           -2.09224046       -1.58559553        0.33898916
 C           -2.94786669       -0.50228244        0.45205675
 C           -0.56277083       -2.92065330       -0.99699683
 C           -1.52894618       -1.90515682       -0.91145697
 C            1.71563203       -2.72971137       -1.83234347
 C            0.29625473       -2.93377933       -2.08779613
 C            2.56181316       -0.48701649       -2.39615020
 C            2.21775817       -1.82010284       -2.82985754
 C            1.45308444        1.64967991       -2.89110161
 C            1.97186932        0.43960118       -3.34814301
 C            0.54459839        2.34202090       -3.70031945
 C           -0.28282262        3.57090125       -1.76253341
 C           -1.41392782        3.38321701       -0.85867167
 C           -0.42452624        3.24603608       -3.09842512
 C           -3.04769140        1.70730567       -0.31883241
 C           -3.22197684        0.31520459       -0.70397203
 C           -2.49274914        2.58410422       -1.24476024
 C           -1.83088907       -1.12178608       -2.04884014
 C           -2.77488773       -0.08152791       -1.95399472
 C           -0.04799497       -2.19489290       -3.27584884
 C            1.19329775       -1.70322803       -3.84699036
 C            1.21614404       -0.34036806       -4.32692011
 C           -1.14440791       -1.34365321       -3.26038238
 C           -0.14221772        1.61581887       -4.75250982
 C            0.02159347        0.18063901       -4.79570274
 C           -1.21688896       -0.40387716       -4.28934964
 C           -1.73740180        2.84594090       -3.55972488
 C           -2.65498336        2.27435807       -2.59367131
 C           -2.85667004        0.87832225       -2.95763634
 C           -1.56323172        1.88370695       -4.63155357
 C           -2.20423012        0.64494167       -4.22234477
