   70
C70 / DATE: 7/ 1/2024 / Origin: Program Fullerene / C70 from database
 C            1.37669168        0.15679535        5.10503346
 C            0.56672521       -1.01751346        4.83635203
 C            1.37425528       -1.94754942        4.08189062
 C            2.57373437        0.05824316        4.28709434
 C            2.60901740       -1.26979676        3.71785141
 C            2.58550955        1.19534616        3.38721644
 C            0.63246516        1.32166575        4.65573941
 C            1.48779187        2.07240550        3.76295030
 C           -0.68188301       -0.57182745        4.25332429
 C           -0.65526866        0.87624953        4.15400016
 C           -1.24007958       -1.27311753        3.19537473
 C            0.81426891       -2.51266215        2.86820783
 C           -0.51489451       -2.28106026        2.53981957
 C            2.76594774       -1.40140456        2.28331223
 C            1.79632059       -2.37014224        1.81486081
 C            2.85755070        1.01367721        2.03106212
 C            2.99003764       -0.28025402        1.49503766
 C            2.59363515        2.08021726        1.16787088
 C            0.88188219        2.81974259        2.76496278
 C            1.57016659        2.96717116        1.49594455
 C           -1.17920910        1.47367283        3.00292803
 C           -0.52409626        2.58025328        2.45617897
 C           -2.23424340       -0.62592634        2.47774422
 C           -2.05714911        0.73525241        2.19860572
 C           -2.97545540       -1.40481296        1.60694585
 C           -0.92509010       -2.64429742        1.25723314
 C           -2.27308862       -2.49671451        0.96307220
 C            1.33973693       -2.26019096        0.50308223
 C            0.01173527       -2.59358615        0.21460644
 C            2.88789125       -0.44505784        0.11742214
 C            2.03747567       -1.43903154       -0.38721239
 C            2.94954084        1.96025765       -0.16876011
 C            3.22351755        0.63404753       -0.67995556
 C            2.13096205        2.62505871       -1.16696533
 C            0.56260254        3.28228876        0.49624235
 C           -0.72401297        2.91102142        1.05228584
 C            0.82945458        2.98422837       -0.83218620
 C           -2.42535296        1.23810815        0.94225528
 C           -1.58583747        2.13555350        0.29081565
 C           -3.78708069       -0.74740999        0.60898632
 C           -3.40533074        0.58731023        0.20540416
 C           -2.71660982       -2.56158340       -0.41097231
 C           -3.78070220       -1.58600868       -0.57142972
 C           -0.41764568       -2.53437639       -1.11626353
 C           -1.77952204       -2.67204172       -1.42815003
 C            1.63760768       -1.40934327       -1.72681767
 C            0.48859672       -2.11670840       -2.09986896
 C            2.87023574        0.62033829       -2.08252767
 C            2.37250350        1.94557657       -2.42285698
 C            2.22223699       -0.48918205       -2.61004145
 C            1.41179803        2.04061321       -3.41591407
 C           -0.21705579        2.57035510       -1.65946853
 C           -1.36825740        2.01253463       -1.08690988
 C            0.04979707        2.36697769       -3.01214550
 C           -3.32028317        0.60002434       -1.24692982
 C           -3.72773446       -0.71363111       -1.72728397
 C           -2.25008351        1.24921302       -1.86470996
 C           -2.21824619       -2.35011794       -2.70958317
 C           -3.11162431       -1.20872810       -2.86375003
 C            0.14297841       -2.21988362       -3.44367399
 C           -1.25763953       -2.29320390       -3.78998732
 C            1.73689189       -0.37170289       -3.90977996
 C            1.32852347        0.94656421       -4.36368229
 C            0.75567793       -1.31781541       -4.39474428
 C           -0.85534714        1.55597033       -3.80640580
 C           -1.91064508        0.90213350       -3.17657092
 C           -2.41666861       -0.27872395       -3.72641114
 C           -1.56644785       -1.10336625       -4.56589721
 C           -0.05077298        0.84693195       -4.79083724
 C           -0.31240580       -0.55702670       -5.03302120
