   70
C70 / DATE: 7/ 1/2024 / Origin: Program Fullerene / C70 from database
 C            1.22553111       -0.00129973        4.34894157
 C            2.49263603       -0.27408034        3.71341700
 C            2.43505554       -1.62579058        3.17571236
 C            0.38753433       -1.18027536        4.19025398
 C            1.05866637       -2.07146940        3.27273009
 C           -0.94394859       -0.72627779        3.85358968
 C            0.45248570        1.13637336        3.89514029
 C           -0.94014162        0.72696818        3.89937016
 C            0.91283930        1.93096249        2.84778355
 C            2.92666998        0.58946076        2.63484114
 C            2.06422182        1.56800199        2.13208715
 C            3.06198310       -1.59534954        1.86388994
 C            3.63127289       -0.26891901        1.70340842
 C            2.40018798       -2.17870827        0.78388195
 C            0.40850052       -2.45588440        2.10702958
 C            1.18133279       -2.82228628        1.00739537
 C           -1.64161218       -1.34842035        2.82511228
 C           -0.95444696       -2.17806589        1.92572803
 C           -2.81828582       -0.73200326        2.41414444
 C           -1.85141597        1.41343768        3.10111030
 C           -2.95034170        0.70313839        2.62001758
 C            0.00693676        2.81696487        2.28227843
 C           -1.42085042        2.56193861        2.42922433
 C            0.23649076        3.32766627        0.94644402
 C            2.26838387        2.03919225        0.82689428
 C            1.35264803        2.91398614        0.23266217
 C            3.84871939        0.19959569        0.42241210
 C            3.29924242        1.49290483        0.05936520
 C            2.74169221       -1.78507789       -0.51416041
 C            3.58345351       -0.68756329       -0.69529864
 C            2.03737565       -2.30461493       -1.60416269
 C            0.56192300       -3.47778136       -0.04396245
 C            1.08530636       -3.29551970       -1.38369828
 C           -1.56345539       -2.55355370        0.72381316
 C           -0.88563697       -3.42185281       -0.12524805
 C           -3.37992696       -1.04715400        1.11450101
 C           -2.62853146       -1.80087196        0.22585540
 C           -3.73565089        1.23818220        1.52475357
 C           -4.05138361        0.13902801        0.62728072
 C           -2.07760088        2.99928627        1.20255202
 C           -1.04713078        3.40304493        0.26449011
 C           -3.18981612        2.32283299        0.73391754
 C           -1.12335119        3.02821727       -1.07619917
 C            1.32831244        3.06355356       -1.15339089
 C            0.04347929        3.10752438       -1.83470403
 C            3.21100432        1.51734778       -1.38995833
 C            3.41735561        0.15521935       -1.86435059
 C            2.25550794        2.32190326       -1.98994749
 C            2.05980682       -1.63730201       -2.83127593
 C            2.67790494       -0.32586143       -2.93412185
 C            0.87651836       -1.63190260       -3.67991914
 C           -0.02550937       -3.44181312       -2.30856448
 C           -1.25178662       -3.46655628       -1.52734399
 C           -0.18961846       -2.46678296       -3.37002455
 C           -2.73979048       -1.56102498       -1.15107888
 C           -2.13267781       -2.43879784       -2.04470352
 C           -1.53208501       -1.91511788       -3.26017156
 C           -3.77435183        0.57321402       -0.72426004
 C           -3.24309055        1.92723695       -0.66246351
 C           -2.21791083        2.28361561       -1.54009068
 C           -3.19563566       -0.32111418       -1.61664967
 C           -1.76626449       -0.59147198       -3.60738516
 C           -2.11963208        1.56709493       -2.73346281
 C           -2.64657952        0.21293347       -2.77769464
 C            0.16898050        2.36352926       -3.07515562
 C            1.52441847        1.84011113       -3.15138576
 C            1.74694853        0.55197042       -3.62644360
 C            0.62758955       -0.25688773       -4.08411126
 C           -0.89653599        1.59508159       -3.51429105
 C           -0.66391999        0.25593394       -4.03635019
