   70
C70 / DATE: 7/ 1/2024 / Origin: Program Fullerene / C70 from database
 C            1.37273414       -0.14410019        4.53448446
 C            2.63626017       -0.34258018        3.84892763
 C            2.56836382       -1.61016440        3.14117118
 C            0.52758122       -1.29369601        4.25514798
 C            1.24505085       -2.16962288        3.34582052
 C           -0.78109177       -0.80483217        3.85301761
 C            0.59792944        1.05293818        4.25728771
 C           -0.77130832        0.64118729        3.99090388
 C            1.16459875        2.08335044        3.51327966
 C            3.09413643        0.66419578        2.90951054
 C            2.45363006        1.89451114        2.85672053
 C            3.02004805       -1.39143112        1.77726769
 C            3.43631832       -0.00457981        1.66407055
 C            2.29587751       -1.96434512        0.73575728
 C            0.56596676       -2.67222454        2.24347820
 C            1.26560849       -2.84882555        1.04886650
 C           -1.39683920       -1.38601575        2.74626273
 C           -0.82033533       -2.52831476        2.19225255
 C           -2.31241075       -0.64574401        1.98910919
 C           -1.56725023        1.40027736        3.14548322
 C           -2.44209983        0.72391126        2.20515263
 C            0.32663213        2.88578627        2.63418630
 C           -1.01044746        2.56376744        2.46899389
 C            2.41280137        2.60465515        1.59356458
 C            1.11548305        3.24742934        1.47149286
 C            3.23699925        0.65348917        0.45465796
 C            2.96543852        2.02858958        0.45568114
 C            2.30925214       -1.35197281       -0.52022817
 C            2.93536552       -0.11265579       -0.67580582
 C            1.51699474       -1.86793411       -1.55223299
 C            0.64042644       -3.53259884        0.01587580
 C            0.78910784       -3.03039033       -1.33944087
 C           -1.51665487       -3.21736414        1.21002535
 C           -0.74705945       -3.91346759        0.19577759
 C           -2.81866496       -1.18637765        0.80431010
 C           -2.60997324       -2.53930844        0.53962186
 C           -3.20946613       -0.32971406       -0.23113582
 C           -2.60916443        1.59585195        1.05996067
 C           -1.59615066        2.63169222        1.14066796
 C           -2.86542677        1.02188909       -0.17157010
 C            0.52983392        3.31321098        0.20725194
 C           -0.79077008        2.88045005        0.02734243
 C            2.68108789        2.65424145       -0.75156083
 C            1.39413078        3.32544487       -0.88143816
 C            2.94970212        0.49118495       -1.92735591
 C            2.93087692        1.93623269       -1.98249009
 C            1.22204647       -1.08006925       -2.66353096
 C            2.05255027       -0.00164113       -2.95927701
 C           -0.01974114       -1.20628708       -3.30209540
 C           -0.47796137       -3.19998582       -2.02835361
 C           -1.42660537       -3.75260064       -1.07500880
 C           -2.66148438       -3.03064918       -0.82967712
 C           -0.91641463       -2.20650859       -2.89958679
 C           -3.60425721       -0.86952247       -1.45244961
 C           -3.12407638       -2.18677272       -1.82469649
 C           -2.29431035       -1.99160827       -3.00026917
 C           -3.52410539       -0.04138496       -2.64679431
 C           -2.80054543       -0.80319525       -3.65550443
 C           -2.38892024        1.65793112       -1.31408592
 C           -1.22986757        2.44523640       -1.23277993
 C           -2.88797396        1.25924821       -2.54815580
 C            0.88331989        3.05785574       -2.20863387
 C            1.91176073        2.33165407       -2.93435394
 C            1.51750675        1.14826514       -3.67400923
 C           -0.43693735        2.65970273       -2.37050867
 C           -0.44451973       -0.20165675       -4.17315986
 C           -1.85892707        0.09003564       -4.28943354
 C           -2.06165129        1.41486503       -3.72240376
 C            0.21321575        1.08723577       -4.13211869
 C           -0.75522413        2.01382589       -3.56323696
