   70
C70 / DATE: 7/ 1/2024 / Origin: Program Fullerene / C70 from database
 C            1.51503684       -0.00876581        5.53231085
 C            0.61939023       -1.13701927        5.70188480
 C            1.22201293       -2.27649169        5.03394131
 C            2.58082699       -0.41155757        4.62580504
 C            2.39651281       -1.80772799        4.31444350
 C            2.60210002        0.53484810        3.52695221
 C            0.76787024        1.04820338        4.87533447
 C            1.58336820        1.53411825        3.78719112
 C           -0.62255684       -0.82337970        5.01160842
 C           -0.54965874        0.54817405        4.54012434
 C            0.27504178       -2.75486709        4.04395136
 C           -0.86885835       -1.86528920        4.03394049
 C            2.23623517       -2.17987060        2.92177371
 C            0.99387600       -2.92007228        2.79673670
 C            2.73980956        0.08713572        2.20818685
 C            2.54787438       -1.27156827        1.90796132
 C            2.49378778        1.02494710        1.19653146
 C            0.94434253        2.05194956        2.67591992
 C            1.69868359        2.12886352        1.51825194
 C           -1.04504674        0.83805473        3.26981544
 C           -0.43378730        1.84831306        2.52741533
 C           -1.36782007       -1.49378755        2.79215786
 C           -1.71930613       -0.16011841        2.57203393
 C            0.28744015       -2.75516329        1.61282187
 C           -1.01452019       -2.26245959        1.68240858
 C            2.12555473       -1.60164618        0.62093281
 C            1.01845719       -2.43791059        0.47772280
 C            2.57696454        0.61777916       -0.13786400
 C            2.43348330       -0.74101219       -0.42430068
 C            2.36566607        1.55958304       -1.15133454
 C            1.17274280        2.90190363        0.50268626
 C            1.63403907        2.70074669       -0.85348187
 C           -1.01900653        2.22304338        1.31255541
 C           -0.27025466        3.03153670        0.46481814
 C           -2.26343151        0.15234853        1.33046890
 C           -2.00983606        1.40530053        0.75740670
 C           -1.66973247       -1.98487820        0.48539924
 C           -2.55088359       -0.91186031        0.48514334
 C            0.34601725       -2.43153989       -0.73607769
 C           -1.04635409       -2.32160683       -0.71857359
 C            2.09566059       -1.13008902       -1.71838601
 C            1.04044913       -2.03747785       -1.87251607
 C            2.43026731        1.15034371       -2.47917317
 C            2.44031932       -0.26967555       -2.75380165
 C            1.53856681        1.76428890       -3.45469614
 C            0.54869204        3.09842574       -1.73318671
 C           -0.65811588        3.17120201       -0.92117401
 C            0.47374365        2.54653887       -3.00844701
 C           -2.49148558        1.65616642       -0.53910785
 C           -1.80925359        2.55243117       -1.38148127
 C           -3.26887277       -0.65214691       -0.66644513
 C           -3.38736321        0.72959083       -1.07997546
 C           -1.73440729       -2.09031197       -1.91522908
 C           -2.95411289       -1.41715466       -1.85812201
 C            0.40707873       -2.19614791       -3.09966579
 C           -1.04388256       -2.17413005       -3.12677780
 C            1.89700335       -0.46845308       -4.08310967
 C            1.33430271        0.79991017       -4.52195036
 C            0.89320046       -1.49020047       -4.26789521
 C           -1.45407643       -1.36593259       -4.27053355
 C           -0.01090152        0.55176927       -5.00229438
 C           -0.24960751       -0.88102408       -4.92625764
 C           -0.78356008        2.42565673       -3.60540395
 C           -1.97040891        2.49489716       -2.76509561
 C           -1.02710498        1.42455074       -4.63701863
 C           -3.67810620        0.71740423       -2.50130864
 C           -3.40154847       -0.62666078       -2.99096372
 C           -2.54540433       -0.51491959       -4.15474640
 C           -2.98719881        1.65176533       -3.35421984
 C           -2.36995397        0.90112658       -4.43602129
