   70
C70 / DATE: 7/ 1/2024 / Origin: Program Fullerene / C70 from database
 C            1.60384363        0.02323498        4.57503921
 C            0.79057820       -1.17284252        4.49053629
 C            1.21042658       -1.92900550        3.32329245
 C            2.56143416       -0.02151399        3.48733077
 C            2.31847052       -1.21726368        2.70849715
 C            2.48834809        1.24511529        2.79869069
 C            0.72957160        1.16183348        4.33986668
 C            1.27599361        1.91133622        3.23295570
 C           -0.59308256       -0.75625321        4.56342076
 C           -0.62197538        0.66374349        4.22785792
 C           -1.53782763       -1.58001678        3.97690582
 C            0.22783338       -2.48433204        2.50761486
 C           -1.08416050       -2.54715839        2.98178227
 C            0.45627050       -2.58594644        1.13428614
 C            2.36126682       -1.11248468        1.32321159
 C            1.56908280       -1.95679354        0.55949860
 C            2.74511196        1.26807321        1.43932630
 C            2.84379495        0.05894612        0.73805065
 C            2.29293894        2.37757484        0.74191748
 C            0.42659191        2.39508180        2.24192018
 C            1.03336644        2.88527475        1.08283501
 C           -1.42927885        1.09942298        3.17429867
 C           -0.89468282        1.91704270        2.16239798
 C           -2.72808859       -0.95312840        3.44195925
 C           -2.61407706        0.40256035        2.93484607
 C           -2.17279882       -2.75094818        2.04045611
 C           -3.21490128       -1.79084771        2.36507316
 C           -0.54552248       -3.10796056        0.31299496
 C           -1.88110071       -2.97588223        0.69953298
 C           -0.24792447       -3.37778836       -1.02004902
 C            1.72406729       -1.95258699       -0.82320368
 C            1.00449558       -2.88364173       -1.56212093
 C            2.97114754        0.11969780       -0.65465801
 C            2.33221775       -0.85013123       -1.44965819
 C            2.79566151        2.54605646       -0.53774899
 C            3.29565370        1.35958698       -1.20218289
 C            2.04909190        3.31018404       -1.51594324
 C            0.22007874        3.44019672        0.10257500
 C            0.72468560        3.62467790       -1.24792975
 C           -1.62048648        2.09919120        0.97707061
 C           -1.14911833        2.97879028        0.01078599
 C           -3.20523963        0.42148272        1.60721835
 C           -3.69406270       -0.91741843        1.31169489
 C           -2.58319426        1.16187867        0.61055876
 C           -2.82148183       -2.57208101       -0.24714840
 C           -3.61154859       -1.37980627        0.00921241
 C           -1.27410916       -3.16530786       -2.02991403
 C           -2.45385360       -2.54731490       -1.64863889
 C            0.81401767       -2.67674682       -2.97734401
 C           -0.61655680       -2.70005015       -3.23392909
 C            2.22231802       -0.67435610       -2.84551413
 C            1.33737527       -1.46800870       -3.56939030
 C            3.17743130        1.57543096       -2.62340370
 C            2.42098062        2.80511983       -2.82514744
 C            2.56928829        0.54320889       -3.42620434
 C            1.37922785        2.53013726       -3.79485290
 C            1.60017853        1.18698862       -4.29669213
 C           -0.32910541        3.22236790       -2.17309245
 C           -1.42011018        2.68316007       -1.38436756
 C           -0.01033935        2.62156751       -3.38313072
 C           -2.70500934        0.77658759       -0.73000173
 C           -3.29162586       -0.44081436       -1.04840385
 C           -2.74502225       -1.20761430       -2.15027993
 C           -1.97432430        1.44882442       -1.70865934
 C           -0.97671434       -1.39497228       -3.75535595
 C            0.24396009       -0.81956281       -4.28010984
 C            0.30534042        0.55291136       -4.45518346
 C           -0.66704650        1.37688063       -3.75116341
 C           -1.84747621       -0.59281431       -3.01920763
 C           -1.56029552        0.76922644       -2.86488172
