   70
C70 / DATE: 7/ 1/2024 / Origin: Program Fullerene / C70 from database
 C            1.45280525        0.13916341        4.83396993
 C            0.67076732       -1.07158724        4.66883513
 C            1.51966219       -2.05944777        4.04431601
 C            2.68170310       -0.02362836        4.07274910
 C            2.76770255       -1.40751116        3.67434960
 C            2.70227027        0.99332135        3.03788780
 C            0.70372116        1.22953737        4.23523234
 C            1.55314865        1.85482244        3.25152741
 C           -0.56663554       -0.71305383        4.00370928
 C           -0.57562568        0.72074050        3.78599141
 C           -1.06209964       -1.51350798        2.98531289
 C            1.02131866       -2.74661298        2.86838910
 C           -0.28389184       -2.54998298        2.44625942
 C            3.01217252       -1.70214730        2.27841155
 C            2.06155964       -2.72154287        1.86382591
 C            3.04002236        0.65901461        1.71957233
 C            3.31466262       -0.67849169        1.38279452
 C            2.69480545        1.57326749        0.71035383
 C            0.96110552        2.39289572        2.12616507
 C            1.77477803        2.58237844        1.02568479
 C           -1.09459280        1.19872423        2.58050140
 C           -0.40918204        2.21097518        1.90143698
 C           -2.06199134       -0.97001622        2.18670915
 C           -1.98535659        0.39066455        1.86569767
 C           -2.71839360       -1.83825043        1.33090783
 C           -0.61782921       -3.01896141        1.18129579
 C           -1.96201223       -2.97395536        0.84487687
 C            1.70129995       -2.77741680        0.51673566
 C            0.35357638       -2.95953395        0.16683361
 C            3.36375702       -1.04051700        0.04375676
 C            2.56107134       -2.17346000       -0.39408892
 C            2.99052189        1.28149634       -0.62863659
 C            3.29119639       -0.02312910       -0.98273530
 C            2.57769699        2.14495695       -1.63892369
 C            1.29452035        3.42662439        0.04303081
 C            1.85171217        3.34293181       -1.28461435
 C           -0.94896508        2.71600959        0.71597601
 C           -0.14633722        3.54506295       -0.07651525
 C           -2.49602812        0.85310030        0.64591812
 C           -2.06158230        2.09093997        0.14663003
 C           -3.47684261       -1.30781638        0.22216919
 C           -3.35326629        0.03535538       -0.10859207
 C           -2.35945830       -3.22908225       -0.51891035
 C           -3.42515307       -2.29656642       -0.84198709
 C           -0.03861653       -2.83863265       -1.17933823
 C           -1.35316590       -3.12215152       -1.54880535
 C            2.10743706       -1.90292182       -1.74138381
 C            2.63814873       -0.60869455       -2.14325230
 C            0.81736651       -2.24622129       -2.11344714
 C            1.96245117        1.58898206       -2.83747077
 C            1.88605198        0.20564284       -2.98884228
 C            0.76717991        3.51861236       -2.23427680
 C           -0.45551948        3.74083969       -1.48379580
 C            0.81359158        2.41709806       -3.17842521
 C           -2.55081071        2.57243766       -1.06623834
 C           -1.63639267        3.22237254       -1.98460959
 C           -3.73059411        0.41325547       -1.39373899
 C           -3.41785194        1.73919138       -1.86889482
 C           -3.21498648       -1.83733528       -2.20215054
 C           -1.95571824       -2.40833812       -2.66328653
 C           -3.51353659       -0.51278297       -2.49567282
 C            0.29371051       -1.64736189       -3.25587752
 C            0.80011484       -0.34682385       -3.66605187
 C           -1.13580927       -1.67610408       -3.50963242
 C           -0.37795644        1.81130770       -3.56489970
 C           -1.58794827        2.39245188       -3.17902770
 C           -2.80769838        1.60550639       -3.18580617
 C           -2.73954444        0.19192048       -3.50245761
 C           -0.34415878        0.48808354       -4.00098352
 C           -1.53805835       -0.34609749       -3.94444383
