   70
C70 / DATE: 7/ 1/2024 / Origin: Program Fullerene / C70 from database
 C            1.44183924       -0.22108202        5.09659332
 C            0.58566356       -1.39481134        5.06007416
 C            1.19354515       -2.36238031        4.16458281
 C            2.57850151       -0.47363255        4.23034185
 C            2.48841939       -1.84470138        3.76038065
 C            2.64298394        0.59643054        3.24412283
 C            0.70019953        0.88861573        4.52561252
 C            1.49409414        1.46040945        3.45341652
 C           -0.68099025       -1.00043599        4.47355918
 C           -0.63343413        0.42415357        4.20064248
 C            0.22312185       -2.69757467        3.12958099
 C           -0.96120936       -1.89172987        3.36066754
 C            0.67121935       -2.87209460        1.82012463
 C            2.91398745       -2.11252461        2.47131872
 C            2.04255123       -2.87785310        1.59478384
 C            3.01374196        0.28193964        1.93789643
 C            3.42567312       -1.01716525        1.66314443
 C            2.53585522        1.06741849        0.88482296
 C            0.82953990        1.94745140        2.33559542
 C            1.51113050        1.99230128        1.12596455
 C           -1.19787648        0.86561955        3.01183953
 C           -0.56244769        1.88272925        2.30082120
 C           -1.61417331       -1.36385626        2.25744813
 C           -1.98742818       -0.02261730        2.28943272
 C           -0.19075659       -2.58245231        0.75191364
 C           -1.41432975       -1.95675747        1.01353143
 C            0.27675368       -2.66314611       -0.56930516
 C            2.52859389       -2.65239516        0.25568625
 C            3.39628483       -1.48348539        0.29346032
 C            1.65744683       -2.76230921       -0.81422553
 C            2.88294937        0.74181317       -0.43305795
 C            3.28271473       -0.56427858       -0.74310378
 C            2.52130335        1.61545817       -1.45649089
 C            0.89876173        2.64145156        0.05745790
 C            1.52749351        2.63676002       -1.18322234
 C           -1.21779937        2.37390166        1.17365804
 C           -0.46139101        2.94751330        0.14805360
 C           -2.66972799        0.48261782        1.19433610
 C           -2.45593987        1.81586256        0.86071059
 C           -2.20367779       -1.51033174       -0.04431424
 C           -3.02286370       -0.40052057        0.18167814
 C           -0.60569003       -2.38616718       -1.62584085
 C           -1.87976332       -1.88296145       -1.35030685
 C           -0.13016690       -2.32872760       -2.93841009
 C            2.16048690       -2.30321988       -2.02210570
 C            2.96726113       -1.09519508       -1.99263987
 C            1.29207807       -2.24026788       -3.16723916
 C            2.26674538        1.10380743       -2.79446338
 C            2.51100823       -0.23140835       -3.06452299
 C            1.54896472       -0.98139518       -3.85228650
 C            0.74503740        2.83137951       -2.39375730
 C            1.04321088        1.72347379       -3.28321719
 C           -1.12146937        3.47658576       -0.96034347
 C           -0.56328013        3.26767359       -2.28522285
 C           -3.21025217        2.37342268       -0.16426343
 C           -2.56083542        3.30262258       -1.06825328
 C           -3.87151599        0.05702472       -0.81777852
 C           -4.04944496        1.49295823       -0.96100401
 C           -2.67686181       -1.44031021       -2.40849198
 C           -3.75624386       -0.50587511       -2.14474999
 C           -0.74078106       -1.40339867       -3.87318884
 C            0.25850616       -0.38667662       -4.15186447
 C            0.00340519        0.93325160       -3.78122203
 C           -2.03723537       -0.99691194       -3.63407224
 C           -1.58498277        2.61041744       -3.08044598
 C           -2.85575652        2.87942686       -2.42829270
 C           -3.85490616        1.83242534       -2.36109919
 C           -3.61607395        0.60012330       -3.08225242
 C           -1.32193345        1.35069601       -3.62503150
 C           -2.34983433        0.41291496       -3.76716672
