   70
C70 / DATE: 7/ 1/2024 / Origin: Program Fullerene / C70 from database
 C            1.07555987        0.07377210        4.63367122
 C            2.29677104       -0.27267476        3.94614462
 C            2.23754258       -1.69572823        3.66024484
 C            0.25681130       -1.13083714        4.70228010
 C            0.84924956       -2.08850182        3.79470234
 C           -1.11288976       -0.73246767        4.48307668
 C            0.23829777        1.11578719        4.07729473
 C           -1.11521733        0.71636806        4.37741194
 C            0.50553589        1.63093558        2.80476709
 C            2.59873800        0.39054672        2.69601331
 C            1.67968855        1.26965147        2.12507341
 C            2.88062772       -1.90871531        2.38025318
 C            3.22864827       -0.59965452        1.84422728
 C            2.31236552       -2.83248029        1.51679870
 C            0.15858793       -2.49407296        2.64876316
 C            0.88936169       -3.12528231        1.64679653
 C           -1.80145168       -1.23478935        3.30948847
 C           -1.08690710       -1.92703150        2.33494505
 C           -2.13183191        1.06283406        3.41889439
 C           -2.69162764       -0.17202164        2.89266659
 C           -0.53157328        2.26042858        2.09643864
 C           -1.86711646        2.06580513        2.50206910
 C           -0.25645185        2.80922808        0.83463419
 C            1.79106763        1.54435411        0.76421914
 C            0.93494211        2.47650502        0.18695358
 C            3.18255387       -0.41523067        0.46687139
 C            2.64289676        0.77104304       -0.03852784
 C            2.59557890       -2.70258293        0.10290209
 C            3.21082007       -1.54214732       -0.35434982
 C            0.33543591       -3.22289874        0.30986183
 C            1.44212337       -3.20100732       -0.62638646
 C           -1.51019108       -1.83849159        1.00096090
 C           -0.81220540       -2.51733124       -0.00517690
 C           -3.15285150       -0.14843122        1.58073899
 C           -2.65650707       -1.09421947        0.67800337
 C           -2.88014676        2.27348398        1.58100701
 C           -3.56834796        1.09150718        1.09095695
 C           -1.27425622        3.43205171        0.11105138
 C           -2.64506385        3.15496340        0.46635207
 C           -1.21962805        3.44009216       -1.33934646
 C            1.13954573        2.86523435       -1.13337826
 C           -0.00022272        3.23576077       -1.95526898
 C            2.73029200        1.01632795       -1.41113692
 C            2.04435727        2.09327935       -1.96632275
 C            3.25093228       -1.35178811       -1.72699869
 C            3.19664528        0.00208174       -2.24325401
 C            1.23647283       -2.71756340       -1.91452189
 C            2.33794242       -2.13392377       -2.53993211
 C           -1.07859217       -2.24688235       -1.34452480
 C           -0.05647936       -2.33411663       -2.30021401
 C           -3.09292895       -1.04761673       -0.64508552
 C           -2.29883116       -1.67797331       -1.68454544
 C           -3.80804996        1.27215500       -0.32931761
 C           -3.29690634        2.58024776       -0.70014340
 C           -2.36884138        2.68708670       -1.81254772
 C           -3.59968100        0.20453479       -1.18630805
 C           -2.39788151       -0.85131925       -2.87584125
 C           -2.16369471        1.58752396       -2.64401017
 C           -2.92633372        0.43229378       -2.45469829
 C            0.04804304        2.40777963       -3.14623293
 C            1.42407943        1.96288669       -3.27988190
 C           -0.99909086        1.52308600       -3.41334680
 C            2.70749759       -0.08929062       -3.61022299
 C            2.17650146       -1.43220178       -3.79644596
 C            1.70494736        0.85461957       -4.06505071
 C           -0.27328970       -1.81297816       -3.57882343
 C           -1.35961389       -0.87482252       -3.78835791
 C           -0.75479969        0.38619343       -4.18205499
 C            0.84857891       -1.31587667       -4.35314158
 C            0.60046215        0.09250223       -4.62113770
