   70
C70 / DATE: 7/ 1/2024 / Origin: Program Fullerene / C70 from database
 C            1.15791541        0.04712074        4.34579769
 C            2.45349679       -0.27920480        3.79454294
 C            2.45309108       -1.70100472        3.50482689
 C            0.33773013       -1.15345681        4.27994531
 C            1.07203997       -2.14359477        3.52670671
 C           -0.96350151       -0.76001411        3.80049653
 C            0.39415139        1.11942679        3.73846334
 C           -0.98483586        0.69090809        3.70190112
 C            0.89078498        1.79038984        2.63317495
 C            2.88536275        0.40215501        2.59204405
 C            2.09519598        1.39472016        2.03224803
 C            3.20762687       -1.90228071        2.28635541
 C            3.46831470       -0.58708870        1.70554844
 C            2.79516426       -2.91880440        1.44264392
 C            0.52131200       -2.67168944        2.35688732
 C            1.38571673       -3.30451193        1.46384964
 C           -1.55841447       -1.48542211        2.77786156
 C           -0.74227872       -2.23637661        1.91530453
 C           -2.75068427       -0.96411885        2.29964537
 C           -1.85066680        1.25510168        2.76709869
 C           -2.94555031        0.47304405        2.41335235
 C            0.00422334        2.56705271        1.89509749
 C           -1.35583465        2.20103646        1.84637561
 C            0.55141874        3.37384871        0.90660415
 C            2.32647224        1.73506175        0.70518920
 C            1.74307278        2.89658869        0.23005718
 C            3.35760513       -0.41322536        0.32016674
 C            2.74365751        0.74264654       -0.18872846
 C            3.20271244       -2.84119948        0.05838549
 C            3.49284952       -1.53038940       -0.49533744
 C            0.96652542       -3.51949469        0.09398075
 C            2.14435296       -3.42828013       -0.73963007
 C           -1.11103150       -2.40059346        0.56582617
 C           -0.19954401       -2.92160828       -0.35678967
 C           -3.23938857       -1.36394536        1.00061023
 C           -2.37849713       -2.00835250        0.12361899
 C           -3.79895551        0.89115474        1.32973290
 C           -4.06689633       -0.27580731        0.50596524
 C           -2.17929601        2.65161623        0.79227145
 C           -3.33408189        1.94774999        0.46472730
 C           -0.31121619        3.97734931       -0.07681572
 C           -1.65797286        3.47501087       -0.20016015
 C            1.54651988        3.06349372       -1.19191907
 C            0.33795718        3.85325657       -1.37083872
 C            2.38333133        0.82173587       -1.54892288
 C            1.78172957        1.99242401       -2.04657137
 C            2.93535460       -1.50666968       -1.82731107
 C            2.04866071       -2.65520817       -1.95710051
 C            2.51619474       -0.30427652       -2.37969298
 C           -0.33931450       -2.63194207       -1.71867854
 C            0.79619022       -2.43745987       -2.51788323
 C           -2.63388623       -1.92003129       -1.24456895
 C           -1.58631031       -2.24752692       -2.19483673
 C           -3.93898308        0.12077350       -0.88339465
 C           -3.51787870        1.51287013       -0.91138823
 C           -3.36061886       -0.77003804       -1.76905887
 C           -1.87401804        3.10645245       -1.59222652
 C           -0.65418622        3.40040798       -2.32810257
 C           -2.61116753        1.95459118       -1.87577130
 C            1.09080389        1.96869357       -3.25856604
 C           -0.24836395        2.53355298       -3.32697925
 C            1.70961447       -0.41390968       -3.50669533
 C            0.74717285       -1.50097896       -3.54620505
 C            1.07969246        0.76263816       -4.05043526
 C           -1.67656721       -1.29782942       -3.29178289
 C           -2.59948722       -0.24971758       -2.88601442
 C           -2.18138632        1.08241899       -2.88499636
 C           -1.13811889        1.46090918       -3.72789565
 C           -0.52588355       -0.95550436       -3.98203256
 C           -0.30919785        0.43535583       -4.33997320
