   70
C70 / DATE: 7/ 1/2024 / Origin: Program Fullerene / C70 from database
 C            0.95053297        0.14198235        4.81943654
 C            2.19535060       -0.17635240        4.15870144
 C            2.15426094       -1.58980009        3.82911859
 C            0.11926559       -1.05535582        4.79698116
 C            0.76673271       -2.00315427        3.91572273
 C           -1.23258141       -0.64465180        4.49785936
 C            0.14634033        1.22402058        4.29492494
 C           -1.23679015        0.80593711        4.42304211
 C            0.53115670        1.89042487        3.13038844
 C            2.53731654        0.53182656        2.94112235
 C            1.65018526        1.45929489        2.39774660
 C            2.83661116       -1.76126033        2.56318035
 C            3.16069867       -0.43377374        2.05700446
 C            2.32214948       -2.69008802        1.67165442
 C            0.12822971       -2.44203430        2.75188051
 C            0.91500411       -3.05429934        1.77908850
 C           -1.85269123       -1.13083687        3.28357784
 C           -1.13900740       -1.94692871        2.40070183
 C           -2.16731430        1.18950325        3.37659968
 C           -2.63087101       -0.03173325        2.73840318
 C           -0.43308865        2.66801837        2.49698545
 C           -1.83072318        2.26264682        2.56908878
 C           -0.19037009        3.15938735        1.15804437
 C            1.76289203        1.77538272        1.03775734
 C            0.97484143        2.79657615        0.49860739
 C            3.10715644       -0.21569354        0.68488603
 C            2.56760680        0.98195506        0.20292545
 C            2.61326340       -2.51762409        0.26341175
 C            3.17221203       -1.31959748       -0.16598208
 C            0.39855460       -3.22307439        0.43410701
 C            1.50118014       -3.06885030       -0.49308909
 C           -1.59105262       -2.03170453        1.07634872
 C           -0.82019624       -2.67012936        0.09906985
 C           -2.88416702       -0.03702683        1.37240831
 C           -2.66224169       -1.22364365        0.68345616
 C           -2.36196868        2.31049555        1.21983521
 C           -1.44849172        3.10294400        0.42874654
 C           -2.90191067        1.16461024        0.65241199
 C           -1.40226035        2.90021215       -0.94411171
 C            1.03902555        3.07085810       -0.86090759
 C           -0.20948282        3.20780669       -1.59477111
 C            2.65199807        1.25381989       -1.16505719
 C            1.96379303        2.33817759       -1.69835889
 C            3.20992428       -1.09721173       -1.53305478
 C            3.13601789        0.26607686       -2.01779510
 C            1.26203052       -2.55433290       -1.76642540
 C            2.32265420       -1.88531309       -2.37144036
 C           -1.10756297       -2.46452855       -1.24650954
 C           -0.05614853       -2.25608971       -2.15680623
 C           -3.15102565       -1.32011909       -0.61050540
 C           -2.40532763       -2.10342026       -1.57268851
 C           -3.03360341        1.10699806       -0.73666613
 C           -2.29295828        1.99768663       -1.53749859
 C           -3.51293823       -0.08632769       -1.27493515
 C           -2.25018656        1.83748870       -2.92485226
 C            0.01597744        2.75879100       -2.95726236
 C            1.37836788        2.25235028       -3.03179908
 C           -1.00798825        2.10534988       -3.63115264
 C            2.65275020        0.19657011       -3.38659313
 C            2.09894830       -1.13541364       -3.58469631
 C            1.66453834        1.15879631       -3.83757549
 C           -0.29633788       -1.62837577       -3.39550395
 C           -0.70636622        0.94391315       -4.45805221
 C            0.74433059       -0.98086709       -4.05685255
 C            0.57621748        0.41008066       -4.44589921
 C           -2.69502283       -1.56973631       -2.88394849
 C           -3.44324208       -0.33355232       -2.69914325
 C           -2.85310651        0.67520519       -3.54618549
 C           -1.59301679       -1.28923669       -3.77335339
 C           -1.82807434        0.02695081       -4.34575277
