   70
C70 / DATE: 7/ 1/2024 / Origin: Program Fullerene / C70 from database
 C            1.32866728       -0.12782415        4.02278341
 C            2.46599160       -0.29366603        3.13354993
 C            2.43670856       -1.66644252        2.66464599
 C            0.47955139       -1.30096241        3.87378024
 C            1.09540607       -2.16981547        2.89963804
 C           -0.86686296       -0.84757266        3.62903470
 C            0.49325395        1.05237423        3.88675310
 C           -0.87524372        0.60397594        3.70338623
 C            0.95884407        2.11860628        3.13588745
 C            2.79318287        0.73060471        2.24603430
 C            2.22679787        1.99249276        2.43454411
 C            3.45580629        0.42834883        1.04923661
 C            3.05316445       -1.97447091        1.46618755
 C            3.63524788       -0.90361291        0.67346759
 C            2.38362998       -2.88032870        0.54793852
 C            0.34962822       -2.62921687        1.81638149
 C            1.03688554       -3.19382057        0.74167072
 C           -1.62969955       -1.45507997        2.63751796
 C           -0.99874203       -2.25347310        1.66756615
 C           -2.82625634       -0.82221824        2.31944381
 C           -1.73515245        1.29121165        2.85102884
 C           -2.89865287        0.62158532        2.49037390
 C            0.03952773        2.81490254        2.25158497
 C           -1.21302948        2.26901502        1.98984209
 C            2.20382010        2.94662726        1.34428121
 C            0.81848713        3.36103430        1.15475666
 C            3.61602744        1.41044788        0.07011316
 C            3.00215329        2.71718748        0.23687568
 C            3.48763515        1.03167019       -1.32997751
 C            3.48625963       -1.26299961       -0.72883731
 C            2.86255061       -2.57162077       -0.79007038
 C            3.11884423       -0.27358079       -1.63413601
 C            2.05993821       -2.88440999       -1.87409152
 C            0.32214613       -3.75458333       -0.30704986
 C            0.89767907       -3.72058914       -1.64138102
 C           -1.69677129       -2.62002458        0.50603900
 C           -1.09307215       -3.46315546       -0.42569781
 C           -3.51423990       -1.15617962        1.09150611
 C           -2.87783520       -1.95975942        0.15687862
 C           -3.72530532        1.15795843        1.43377093
 C           -4.20827780        0.03997559        0.64090989
 C           -1.82015945        2.52544945        0.75302563
 C           -3.13350439        2.11729173        0.53009263
 C            0.27267341        3.38546923       -0.12578994
 C           -1.06192873        3.01780433       -0.31678458
 C            2.53209568        3.15718605       -1.06301760
 C            2.86411093        2.12838677       -2.03679425
 C            1.12495811        3.47355014       -1.22734223
 C            1.67292612        1.85666965       -2.81307129
 C            0.71457606        2.90004891       -2.49678773
 C            2.05836594       -0.50949764       -2.52057444
 C            1.66430690       -1.81844176       -2.78294930
 C            1.22959500        0.54158443       -2.92955699
 C           -0.13926267       -3.30407182       -2.56329143
 C           -1.39624111       -3.30035257       -1.84087910
 C            0.29676790       -2.07329309       -3.20098002
 C           -3.22152671       -1.82263441       -1.18718539
 C           -2.35153949       -2.36897379       -2.20908621
 C           -4.11743515        0.41724822       -0.75818127
 C           -3.55197260        1.75778613       -0.81355922
 C           -3.70746932       -0.54138325       -1.67598868
 C           -1.55353454        2.91115596       -1.61835240
 C           -0.62801360        2.64478999       -2.70225672
 C           -2.74517162        2.12311782       -1.88016389
 C           -0.11521621        0.29850954       -3.23189002
 C           -0.59827554       -1.01139134       -3.28637192
 C           -1.95541708       -1.26005764       -3.06569550
 C           -2.86732044       -0.15787340       -2.80065552
 C           -1.01360704        1.36508450       -3.26871502
 C           -2.40147401        1.14422666       -2.90336514
