   70
C70 / DATE: 7/ 1/2024 / Origin: Program Fullerene / C70 from database
 C            1.15231957       -0.06312913        4.54914106
 C            2.48590798       -0.30757123        4.03626080
 C            2.49546260       -1.63734301        3.45133071
 C            0.34746359       -1.24312796        4.26965960
 C            1.12904358       -2.13676759        3.45009312
 C           -0.92349097       -0.79975496        3.75929767
 C            0.41597797        1.10020885        4.08113890
 C           -0.90545681        0.65233430        3.68493916
 C            1.05698011        2.06066312        3.31292389
 C            3.04161874        0.61106988        3.06017710
 C            2.41885021        1.83307326        2.83932859
 C            3.20746437       -1.56644984        2.18822302
 C            3.48709325       -0.16488254        1.91330023
 C            2.77306253       -2.37470192        1.15267934
 C            0.59363390       -2.61737379        2.25507642
 C            1.48812842       -3.04391483        1.28272064
 C           -1.51936990       -1.49006523        2.71359448
 C           -0.73217798       -2.31464678        1.88861636
 C           -2.64057653       -0.88237218        2.17617654
 C           -1.56868577        1.25938703        2.61767087
 C           -2.65581915        0.57106817        2.09933679
 C            0.31847434        2.70904813        2.24143300
 C           -0.87612252        2.15422858        1.79212106
 C            2.52494337        2.44102532        1.52688110
 C            1.29184018        3.16920618        1.27398162
 C            3.29477942        0.34942685        0.62873511
 C            3.10047234        1.72646723        0.47810704
 C            2.85101681       -1.87537492       -0.20594256
 C            2.98532999       -0.51470537       -0.43124837
 C            1.01165468       -3.31077569       -0.05065750
 C            1.88168611       -2.61458726       -0.98743140
 C           -1.21670376       -2.70535883        0.62005367
 C           -0.34772618       -3.31178676       -0.30578590
 C           -3.21435124       -1.39338753        0.95927647
 C           -2.52355946       -2.35282489        0.23163926
 C           -3.18061037        0.93225265        0.80128759
 C           -3.80736708       -0.26118573        0.26525953
 C           -1.22703666        2.29526078        0.44000102
 C           -2.42351071        1.73884370       -0.03942544
 C            0.90847127        3.34727079       -0.04608457
 C           -0.40931644        3.04813600       -0.41580379
 C            2.94963405        2.24989355       -0.80100292
 C            1.92058559        3.25365291       -0.99802056
 C            2.55117839        0.00636154       -1.64671188
 C            2.83951187        1.33501893       -1.91887798
 C            1.30296923       -2.02360235       -2.10917804
 C            1.56880337       -0.67360424       -2.38678200
 C           -0.69534671       -3.35118712       -1.64832092
 C            0.12743991       -2.60225205       -2.58687933
 C           -2.98363566       -2.63546252       -1.05387418
 C           -2.07453678       -3.18960790       -2.02810648
 C           -4.00442706       -0.35219351       -1.10029793
 C           -3.79180737       -1.63993395       -1.74064188
 C           -2.70707209        1.73447015       -1.41030610
 C           -3.43154246        0.67190204       -1.95934138
 C           -0.80880769        3.25210090       -1.73452586
 C           -1.89461048        2.46046725       -2.27453436
 C            1.58949461        3.25665994       -2.40580214
 C            2.12030946        2.02320716       -2.97087895
 C            0.19645554        3.34942497       -2.77908714
 C            0.72337955        0.03291371       -3.25725241
 C           -1.39605119        1.79060669       -3.46853710
 C            1.02864548        1.33783396       -3.62574637
 C           -0.06158830        2.28175394       -3.72818200
 C           -0.76807193       -1.82658420       -3.42168536
 C           -2.10901546       -2.34220603       -3.20987246
 C           -3.19115419       -1.40069077       -3.04235548
 C           -2.88924180        0.01124301       -3.13350195
 C           -0.55594503       -0.45692727       -3.52853299
 C           -1.64534664        0.42985840       -3.58924607
