   70
C70 / DATE: 7/ 1/2024 / Origin: Program Fullerene / C70 from database
 C            1.15134041        0.05151198        4.72870919
 C            2.41569239       -0.38387140        4.18582697
 C            2.29775570       -1.80460899        3.88446835
 C            0.30590094       -1.12710898        4.82773371
 C            0.88533700       -2.12648773        3.95375273
 C           -1.04470817       -0.69427048        4.57412446
 C            0.39057896        1.04415998        3.99521205
 C           -0.99244974        0.72796746        4.25755402
 C            0.76809053        1.37599391        2.69205227
 C            2.89982348        0.25019749        2.98104592
 C            2.07758514        1.12549337        2.26365962
 C            3.00743044       -2.04329044        2.63968596
 C            3.61611924       -0.77907048        2.25588936
 C            2.39506407       -2.82008927        1.66425176
 C            0.21990300       -2.50531832        2.78311680
 C            0.96192808       -3.07563864        1.75149156
 C           -1.77446451       -1.31817996        3.49277685
 C           -1.08707546       -2.06140228        2.52904204
 C           -1.95538822        0.95108627        3.20364470
 C           -2.68587980       -0.29267213        3.04391074
 C           -0.20457265        1.78549826        1.76369877
 C           -1.56789188        1.62853063        2.05001409
 C            0.18733051        2.16525090        0.47347888
 C            2.43501751        1.42668483        0.95207407
 C            1.54125273        2.10940781        0.12776345
 C            3.90061638       -0.53871925        0.92329427
 C            3.50606018        0.74204078        0.37372807
 C            2.72292332       -2.59315289        0.26617350
 C            3.55158229       -1.53558623       -0.07965995
 C            0.42733413       -3.08133707        0.40275583
 C            1.52492156       -2.83615493       -0.51586776
 C           -1.61840841       -2.13120892        1.23083348
 C           -0.80392817       -2.48571765        0.15348880
 C           -3.33246967       -0.48797456        1.84313065
 C           -2.86322604       -1.55951874        0.97874079
 C           -2.47673508        1.63708829        0.99706530
 C           -3.47291474        0.65844836        0.97640755
 C           -0.78451498        2.45945559       -0.50024921
 C           -2.13991457        2.26220495       -0.19948994
 C           -0.39333442        2.86281945       -1.78985234
 C            1.93584600        2.39925394       -1.17386247
 C            0.94296438        2.77422498       -2.15823942
 C            3.55187369        0.58721383       -1.06308206
 C            3.30394791       -0.81965318       -1.32224089
 C            2.88252659        1.51477123       -1.83565034
 C            1.27154852       -2.08282677       -1.65437106
 C            2.21799994       -1.16427697       -2.12518302
 C           -1.07289125       -1.99195428       -1.13177660
 C           -0.04649029       -1.97414885       -2.08264634
 C           -3.21528809       -1.17886460       -0.38286498
 C           -3.87926945        0.11214869       -0.29670886
 C           -2.30680903       -1.39279377       -1.41645172
 C           -3.07331954        2.18704155       -1.23095254
 C           -3.81496999        0.94957564       -1.39003228
 C           -1.33362291        2.97023879       -2.81365432
 C           -2.71058039        2.62610573       -2.55822948
 C           -1.00545610        2.43626311       -4.12646331
 C            1.29480443        2.10247514       -3.40327711
 C            2.23437495        1.05575612       -3.04803826
 C            1.84740098       -0.28337718       -3.14573626
 C            0.29490124        1.82185805       -4.32054021
 C           -0.27905006       -1.45803383       -3.34824660
 C            0.74403027       -0.60863018       -3.93015970
 C            0.07589168        0.43463183       -4.69218152
 C           -2.48284065       -0.69225983       -2.61565953
 C           -3.36283214        0.39367197       -2.64542494
 C           -3.06516230        1.54885221       -3.47258106
 C           -2.01902989        1.45003630       -4.46603180
 C           -1.56993334       -0.87561301       -3.65087032
 C           -1.35227667        0.17585239       -4.63432034
