   70
C70 / DATE: 7/ 1/2024 / Origin: Program Fullerene / C70 from database
 C            1.62386686        0.11197678        4.61870651
 C            0.81002763       -1.08996519        4.61393988
 C            1.45216420       -2.04408494        3.73543430
 C            2.60059915       -0.00715760        3.54694797
 C            2.51671564       -1.34598071        3.02715748
 C            2.39697404        1.08792552        2.62775298
 C            0.75881563        1.22614389        4.29234978
 C            1.37495067        1.94834303        3.19830522
 C           -0.56074597       -0.71233904        4.33345227
 C           -0.58376816        0.71940533        4.08334807
 C           -1.32144509       -1.54894279        3.53280120
 C            0.66931052       -2.93587342        3.00882332
 C           -0.72168045       -2.75650688        2.97873644
 C            1.28955084       -3.56830180        1.93794048
 C            2.63099482       -1.55458906        1.65870429
 C            2.32950692       -2.83631304        1.22844717
 C            2.35939963        0.83942131        1.25197026
 C            2.46056398       -0.47632654        0.76782661
 C            1.80555227        1.82822621        0.43482934
 C            0.54223712        2.59948915        2.30754170
 C            1.04817837        2.83802363        1.03801503
 C           -1.29353221        1.22842481        2.99893774
 C           -0.83827052        2.41765461        2.43290470
 C           -2.16975634       -0.97036469        2.50368474
 C           -2.08260470        0.38231645        2.21072373
 C           -1.48460273       -3.08823868        1.77918340
 C           -2.24520634       -1.90978583        1.40035168
 C            0.48200950       -4.25730609        0.95361195
 C           -0.90015318       -3.85577538        0.78775244
 C            2.18149152       -3.09963901       -0.17951924
 C            1.14365763       -4.10655428       -0.32688680
 C            2.24699227       -0.72373365       -0.60052022
 C            2.20235716       -2.04349742       -1.07959376
 C            1.71945602        1.62299231       -0.94381791
 C            1.95829253        0.34483059       -1.46955458
 C            1.23030581        2.65056873       -1.76025876
 C            0.36172911        3.74807459        0.25310144
 C            0.48260150        3.67865754       -1.18662555
 C           -1.65669137        3.03482704        1.49623626
 C           -1.03745195        3.95830726        0.56614323
 C           -2.47427318        0.81348891        0.94353868
 C           -2.54212119        2.17993699        0.72370198
 C           -2.17797218       -1.42806987        0.09158744
 C           -2.36111000       -0.06099369       -0.14559235
 C           -1.08073504       -3.47123249       -0.60312856
 C            0.11830339       -3.87538330       -1.32115781
 C           -1.68858381       -2.25117152       -0.92513332
 C            1.66183739       -2.29173034       -2.33430722
 C            0.47538548       -3.13390740       -2.42869835
 C            1.76668621        0.09901114       -2.83798843
 C            1.46974130       -1.19433853       -3.25330428
 C            1.10689424        2.44664215       -3.12884559
 C            1.36697972        1.13332965       -3.67916595
 C           -0.07132653        2.98020785       -3.79436290
 C           -0.82132048        4.01362044       -1.75104882
 C           -1.77905892        3.88837741       -0.67380492
 C           -2.58995675        2.68570531       -0.63215009
 C           -1.15953014        3.43676671       -2.96046777
 C           -2.28897963        0.43657249       -1.45664977
 C           -2.50119472        1.80516731       -1.70461437
 C           -2.13796923        2.35376958       -2.93531116
 C           -1.50379430       -1.72555501       -2.20556593
 C           -0.53397210       -2.29662141       -3.02865812
 C            0.20093479       -1.43804183       -3.92592328
 C           -1.95413672       -0.43694166       -2.50479073
 C            0.32007903        0.84889354       -4.64982771
 C           -0.61332231        1.95364292       -4.65834683
 C           -1.84530856        1.47886375       -4.04495950
 C           -0.46144975       -0.35100622       -4.45259168
 C           -1.68311833        0.06666438       -3.78131742
