   70
C70 / DATE: 7/ 1/2024 / Origin: Program Fullerene / C70 from database
 C            1.59372723        0.03417009        4.89540102
 C            0.78042275       -1.14743342        4.66986669
 C            1.39516604       -1.91543876        3.59777164
 C            2.68061646        0.00505510        3.93531098
 C            2.68164970       -1.30207966        3.30772007
 C            2.56759572        1.17352873        3.07766088
 C            0.77251352        1.19128116        4.59534349
 C            1.36149469        1.88469859        3.46074614
 C           -0.59616960       -0.71449724        4.51276090
 C           -0.60406674        0.74389871        4.49240052
 C           -1.40324068       -1.41367176        3.62507974
 C            0.59381974       -2.37430618        2.54871791
 C           -0.78771430       -2.36420839        2.70921189
 C            1.14186804       -2.53575909        1.27017429
 C            3.17326059       -1.38919090        2.01845773
 C            2.48642943       -2.24450967        1.07139878
 C            2.86401071        1.02804624        1.72523525
 C            3.46529563       -0.15416721        1.30683786
 C            2.17014049        1.79091371        0.78485808
 C            0.52329683        2.36730041        2.46282091
 C            1.00165124        2.46626376        1.15846000
 C           -1.43866547        1.41042608        3.60403997
 C           -0.85402602        2.36423166        2.67319383
 C           -2.44271142       -0.71260145        2.88912263
 C           -2.46011205        0.67242446        2.87824130
 C           -1.64073722       -2.45952584        1.54490534
 C           -2.65633284       -1.43169496        1.64694845
 C            0.31125387       -2.68986782        0.15087452
 C           -1.08125674       -2.68429636        0.29784585
 C            0.86799082       -2.67047200       -1.13934019
 C            2.92546873       -1.82464852       -0.24235471
 C            3.46774745       -0.47947992       -0.10479208
 C            2.12790857       -2.09874740       -1.34366399
 C            2.48498853        1.66107079       -0.57319006
 C            3.08599666        0.48264163       -1.03265943
 C            1.89661778        2.54071847       -1.48156815
 C            0.15909495        2.96955397        0.17045289
 C            0.70394894        3.25998379       -1.07303001
 C           -1.74539405        2.45786794        1.53011832
 C           -2.69731161        1.36784465        1.62455957
 C           -1.21687020        2.75536172        0.28119707
 C           -2.99729833       -0.74764126        0.48490058
 C           -2.99027175        0.65419751        0.46632015
 C           -1.87388122       -2.42652794       -0.81646081
 C           -2.85766078       -1.42803022       -0.72461085
 C            0.03980444       -2.89896632       -2.24046857
 C           -1.39633764       -2.84562977       -2.05105977
 C            0.33645034       -2.25049995       -3.51022789
 C            2.35163017       -1.33552585       -2.48608907
 C            2.81811630        0.03070808       -2.32195530
 C            1.39298980       -1.35804042       -3.57274725
 C            1.72279965        2.14439604       -2.87031625
 C            2.09270492        0.86826186       -3.25765604
 C            1.14538469        0.02149745       -3.97443534
 C           -0.17884131        3.35736210       -2.22016836
 C            0.45858760        2.67850795       -3.33609387
 C           -1.94418754        2.37890408       -0.84994337
 C           -2.84635878        1.31128074       -0.75852566
 C           -1.52676635        2.83778382       -2.09518709
 C           -3.33059329       -0.79526696       -1.86939035
 C           -3.26714680        0.65093187       -1.91083854
 C           -1.99591253       -2.35144031       -3.27412657
 C           -0.92101625       -1.87944504       -4.13013349
 C           -2.98352267       -1.30079072       -3.18134613
 C           -0.16141375        0.45847803       -4.21069780
 C           -0.51799459        1.77571474       -3.92022978
 C           -1.79754074        2.04761829       -3.28109734
 C           -2.74259252        1.03726878       -3.21151443
 C           -1.17035295       -0.47905346       -4.42609670
 C           -2.51814426       -0.17673823       -3.97694002
