   70
C70 / DATE: 7/ 1/2024 / Origin: Program Fullerene / C70 from database
 C            1.26241768       -0.09086525        4.41463920
 C            2.60541101       -0.32738655        3.91883750
 C            2.59193580       -1.57327013        3.16658342
 C            0.45718479       -1.25077688        4.08149045
 C            1.25936952       -2.13328330        3.25438279
 C           -0.81092062       -0.78406351        3.54134856
 C            0.54411827        1.08887882        3.96689122
 C           -0.71382749        0.65555660        3.37901040
 C            1.24286776        2.12361862        3.36483148
 C            3.23164300        0.68298090        3.08624856
 C            2.63650747        1.93541132        2.96973976
 C            3.13854360       -1.30667750        1.85162751
 C            3.73520655        0.01673927        1.89454058
 C            2.40874368       -1.69793924        0.73021588
 C            0.66304511       -2.63988718        2.10828853
 C            1.34326468       -2.58799260        0.88517497
 C           -1.39432617       -1.52161783        2.51753772
 C           -0.72476493       -2.65924033        2.07589888
 C           -2.23043916       -0.86483315        1.61630847
 C           -1.16077802        1.22667514        2.18732650
 C           -2.03181128        0.50175620        1.37811081
 C            0.59402866        2.88394244        2.31469062
 C           -0.53213323        2.36385731        1.67244074
 C            2.85819785        2.71956333        1.76563155
 C            1.64774862        3.49056339        1.52418976
 C            3.85739256        0.73115547        0.71253893
 C            3.53512924        2.14938419        0.69159239
 C            2.51232279       -0.96557070       -0.45228589
 C            3.34080002        0.14848118       -0.51367901
 C            1.58655934       -1.18299106       -1.46736923
 C            0.67452473       -3.05293295       -0.25197846
 C            0.84099643       -2.35824042       -1.45876866
 C           -1.31852213       -3.42501516        1.09009593
 C           -0.48854525       -3.79317982       -0.03685506
 C           -2.93502456       -1.63702217        0.68967720
 C           -2.57935786       -2.97553131        0.53409336
 C           -3.68871189       -1.00457740       -0.29597751
 C           -2.53552577        1.08959183        0.22189530
 C           -3.53609577        0.42772337       -0.48087786
 C           -0.86059158        2.82437918        0.39143971
 C           -1.85030121        2.16709979       -0.35974920
 C            1.34492543        3.90266524        0.23772894
 C           -0.02402664        3.76063375       -0.22245269
 C            3.13174309        2.48301788       -0.66357141
 C            2.98978681        1.23543874       -1.40643005
 C            2.20734198        3.49891060       -0.86467242
 C            1.26429207       -0.15485131       -2.36468003
 C            1.92393052        1.07448228       -2.28990163
 C            0.15617485       -0.28872782       -3.21032813
 C            0.04807901       -2.64915242       -2.56669164
 C           -0.38474661       -1.55565618       -3.41834624
 C           -1.37973642       -4.09794710       -1.13751316
 C           -2.70105477       -3.60768698       -0.76795936
 C           -1.05981830       -3.57672135       -2.44490378
 C           -3.83274092       -1.61607010       -1.61427314
 C           -1.81981383       -1.69783763       -3.62548286
 C           -3.21762159       -2.83345571       -1.87714397
 C           -2.24729008       -2.91713780       -2.95936540
 C           -3.69983940        0.70822045       -1.88715722
 C           -3.73280432       -0.55687450       -2.60071835
 C           -2.62486167       -0.57069741       -3.54401148
 C           -1.95421077        2.40667137       -1.74466215
 C           -0.60728249        0.83914040       -3.52790870
 C           -2.71274494        1.54435159       -2.52233178
 C           -1.99681993        0.73474731       -3.49558753
 C            0.03116340        3.81562538       -1.66260569
 C            1.38265523        3.45316705       -2.05658680
 C            1.29119948        2.20489658       -2.79368514
 C           -0.87186795        2.97123784       -2.40059670
 C           -0.08029350        2.09514601       -3.24793930
