   70
C70 / DATE: 7/ 1/2024 / Origin: Program Fullerene / C70 from database
 C            1.20169031        0.14157478        4.67158672
 C            2.43453538       -0.01840465        3.93023809
 C            2.47014882       -1.38791209        3.45062091
 C            0.38550348       -1.04062264        4.42452043
 C            1.12479996       -1.91043155        3.53279538
 C           -0.93007842       -0.59234883        4.01935463
 C            0.38338168        1.30298390        4.39614310
 C           -0.98183679        0.84075944        4.22030124
 C            0.70061724        2.13241700        3.24621468
 C            2.69003159        0.84248745        2.78491507
 C            1.73322635        1.76721049        2.37970506
 C            3.10257177       -1.37048031        2.15012090
 C            3.33332407        0.02036398        1.78285581
 C            2.62909749       -2.22381553        1.16131612
 C            0.52457415       -2.35000162        2.35732998
 C            1.33790210       -2.75564145        1.29615412
 C           -1.49521911       -1.10153900        2.85779553
 C           -0.83609958       -2.10053086        2.13028164
 C           -2.49293995       -0.36016152        2.23421291
 C           -1.58539856        1.65162198        3.17680835
 C           -0.56678226        2.56064406        2.68323748
 C           -2.40984396        1.03743695        2.24017773
 C           -0.60864480        2.91290918        1.34294315
 C            1.63067805        2.10341121        1.02830306
 C            0.58699221        2.93648805        0.62721169
 C            3.22486691        0.36298955        0.43816157
 C            2.38173956        1.41549984        0.06117928
 C            3.14148047       -2.01056973       -0.11236573
 C            3.48219840       -0.64675762       -0.48149079
 C            2.53251921       -2.65030428       -1.26228195
 C            0.74707594       -3.42014969        0.22793759
 C            1.35446965       -3.36098604       -1.09242530
 C           -1.45715824       -2.63907753        0.99464636
 C           -0.69329266       -3.34071286        0.06290498
 C           -3.26356324       -0.99372743        1.27264948
 C           -2.69837879       -2.14240615        0.58872068
 C           -3.96956514       -0.18954925        0.29349763
 C           -2.69217919        1.73996001        1.06755440
 C           -1.80541381        2.73679909        0.64812877
 C           -3.61368618        1.20906199        0.16937075
 C           -1.90717466        3.25965144       -0.63757762
 C            0.57992009        3.43726928       -0.66628315
 C           -0.69957410        3.75718842       -1.27378935
 C            2.15802799        1.67202142       -1.30008884
 C            1.40095826        2.78392275       -1.66865701
 C            3.12539735       -0.46064637       -1.87112485
 C            2.67472577       -1.74530308       -2.39035633
 C            2.47442495        0.70337529       -2.26052977
 C            1.73581703       -1.76876015       -3.41324728
 C            0.28826838       -3.24189648       -2.07578270
 C           -0.96860273       -3.15657184       -1.35376466
 C            0.47099559       -2.46033684       -3.20900524
 C           -2.96177706       -1.98046123       -0.83416334
 C           -3.79065281       -0.80866409       -1.00988784
 C           -1.93225308       -2.22719424       -1.73187896
 C           -3.48064731        1.49269325       -1.24846942
 C           -2.67082495        2.54200203       -1.64510427
 C           -3.34849781        0.21715320       -1.93043163
 C           -0.68126423        3.26692245       -2.63940835
 C            0.65245013        2.76706707       -2.91760876
 C           -1.80494081        2.36096274       -2.79695082
 C            1.84714952        0.72552090       -3.50486023
 C            1.44982447       -0.53155400       -4.11584179
 C            0.77459448        1.66666523       -3.75010465
 C           -0.59539068       -1.56224150       -3.61863346
 C           -1.63627314       -1.29242757       -2.73360480
 C           -2.22420349       -0.01586958       -2.71832499
 C           -1.56387199        1.07989554       -3.29072366
 C            0.01503361       -0.46958103       -4.34497080
 C           -0.41498290        0.88070870       -4.05015693
