   70
C70 / DATE: 7/ 1/2024 / Origin: Program Fullerene / C70 from database
 C            1.49530074        0.06056200        4.43847024
 C            0.68302566       -1.12469022        4.22272330
 C            1.46704054       -2.04660593        3.43815267
 C            2.62627270       -0.01107827        3.52887743
 C            2.66885888       -1.34901320        3.00336962
 C            2.51862713        1.07786910        2.58617613
 C            0.70143032        1.20927875        4.05456068
 C            1.42327376        1.92487746        3.02652942
 C           -0.59404000       -0.70546457        3.69152633
 C           -0.63034524        0.74732661        3.73130276
 C           -1.09989289       -1.35489963        2.56562142
 C            0.82794044       -2.85342848        2.50212631
 C           -0.47162869       -2.51476935        2.08489868
 C            1.67079230       -3.51953181        1.61423916
 C            3.06956459       -1.54631172        1.69097705
 C            2.89933545       -2.84384609        1.23298321
 C            2.65262775        0.81868217        1.21888138
 C            2.94887455       -0.48320585        0.77042619
 C            2.13412317        1.76089675        0.32157285
 C            0.68673837        2.56651643        2.04728832
 C            1.29947825        2.76992804        0.82462565
 C           -1.31319987        1.40013238        2.71769360
 C           -0.70931244        2.48690006        2.07528222
 C           -2.02912620       -0.67545306        1.76553012
 C           -2.27140162        0.67923613        2.02196149
 C           -2.48690821       -1.24834458        0.57283577
 C           -1.04002772       -3.18279555        1.00347644
 C           -2.04215861       -2.50806795        0.19928112
 C            1.13275838       -4.15805486        0.42941520
 C           -0.20065980       -3.95635676        0.10298534
 C            3.16835911       -3.14190438       -0.14891668
 C            2.15388826       -4.08157008       -0.60191981
 C            2.90701619       -0.75541953       -0.60794839
 C            3.19377591       -2.03770701       -1.07735353
 C            2.16827940        1.49481133       -1.05137900
 C            2.34489006        0.18064839       -1.48208573
 C            1.63821397        2.42044074       -1.94976763
 C            0.69494394        3.67203900       -0.03220440
 C            1.01207016        3.62014927       -1.43885003
 C           -1.43450941        3.15312128        1.07889599
 C           -0.73697471        3.88230443        0.10820687
 C           -3.13287661        1.39309807        1.20339039
 C           -2.74403016        2.74117007        0.82682718
 C           -3.06471374       -0.43355455       -0.40143226
 C           -3.65775357        0.75237061        0.01750607
 C           -2.72024068       -0.62915405       -1.74974647
 C           -1.72205306       -2.72680044       -1.19736485
 C           -0.58526429       -3.62577516       -1.26452299
 C           -1.81675706       -1.64483082       -2.06764543
 C            1.77682496       -3.69315814       -1.94517425
 C            2.54008735       -2.50103545       -2.28208152
 C            0.38122977       -3.41798243       -2.23838257
 C            1.69999882       -0.24128929       -2.65519030
 C           -0.76217913       -1.35059019       -2.94415642
 C            1.64920390       -1.59117158       -2.96135971
 C            0.33700331       -2.20108983       -3.02700246
 C            0.81804786        1.92714500       -3.03988862
 C            0.68444600        0.55316772       -3.17332063
 C           -0.57970995       -0.02442103       -3.34496888
 C           -0.21428640        3.84986528       -2.18420045
 C           -1.28951817        4.06294728       -1.22890669
 C           -0.34064404        2.79216677       -3.17145630
 C           -3.36604221        3.03000411       -0.45362298
 C           -3.97176273        1.79766639       -0.93680631
 C           -2.55877979        3.58299960       -1.52266175
 C           -2.86800871        0.40452410       -2.67199740
 C           -1.70831230        0.77944073       -3.45295620
 C           -1.58535743        2.22623664       -3.40264238
 C           -3.57772318        1.61503160       -2.31310749
 C           -2.74814332        2.74581753       -2.69759606
