   70
C70 / DATE: 7/ 1/2024 / Origin: Program Fullerene / C70 from database
 C            1.55789121        0.03790241        4.71580564
 C            0.73171850       -1.13634832        4.52476688
 C            1.36727364       -1.98460316        3.52976352
 C            2.68375347       -0.06559630        3.80619405
 C            2.50245037       -1.25585812        2.99189319
 C            2.80995152        1.20839953        3.13108592
 C            0.77373079        1.18946973        4.30470149
 C            1.57023347        1.93831886        3.35724187
 C           -0.62175675       -0.68400004        4.26385804
 C           -0.52716589        0.71421626        3.87665594
 C           -1.43085640       -1.51722684        3.51290889
 C            0.54656237       -2.67874627        2.65265340
 C           -0.82264050       -2.69137458        2.91315376
 C            0.97455165       -2.86373782        1.33853726
 C            2.65594746       -1.15300273        1.60881312
 C            1.85241057       -1.93432963        0.76988585
 C            3.33074928        1.20731702        1.84523740
 C            3.31927809       -0.04052738        1.09092492
 C            2.90727110        2.25424640        0.93147145
 C            0.94377687        2.51050242        2.25748743
 C            1.75964624        2.98144494        1.23357580
 C           -1.00803828        1.11483273        2.62927753
 C           -0.38227275        2.16275790        1.95347997
 C           -2.26062751       -0.93367555        2.47603787
 C           -1.91669473        0.30625084        1.94375861
 C           -1.72682626       -3.13827326        1.87419315
 C           -2.61052897       -2.01553706        1.57463715
 C            0.21430120       -3.68288311        0.51070701
 C           -1.19782006       -3.86343193        0.81856372
 C            0.34209013       -3.55663620       -0.92858928
 C            1.78539238       -1.65414599       -0.60430023
 C            1.06682896       -2.49525409       -1.46026013
 C            3.16414835        0.29761017       -0.31142840
 C            3.07008800        1.74206561       -0.41926431
 C            2.34435236       -0.47724660       -1.11025319
 C            2.29144396        2.29908103       -1.43065534
 C            1.16536858        3.70653769        0.21450854
 C            1.64386486        3.49910256       -1.13776799
 C           -0.94271262        2.63443717        0.76731957
 C           -0.27919709        3.67499616        0.12793584
 C           -2.21578129        0.58202639        0.60581522
 C           -1.79457800        1.79280673        0.03534107
 C           -2.89860291       -1.71899996        0.24825242
 C           -2.85498021       -0.38957082       -0.17766869
 C           -1.92346023       -3.85599301       -0.43434937
 C           -0.94880911       -3.88542710       -1.50756422
 C           -2.81430956       -2.74342641       -0.69577005
 C           -1.45811681       -3.05401665       -2.58292108
 C           -2.67809998       -2.41454340       -2.10334564
 C            0.77909974       -2.07229540       -2.75963570
 C           -0.54745972       -2.30667241       -3.31608323
 C            1.85207966        0.07332488       -2.28836601
 C            1.77790916        1.46404216       -2.43388996
 C            1.21360486       -0.75832143       -3.19842159
 C            0.98639762        2.00564561       -3.45016327
 C            0.60319888        3.99687864       -2.01370854
 C           -0.62663308        4.02326732       -1.23110705
 C            0.33027743        3.27934002       -3.23810850
 C           -2.18117468        2.12652712       -1.27439863
 C           -1.59848257        3.21256283       -1.92416064
 C           -1.09889641        3.02711172       -3.27535683
 C           -3.18457712       -0.10455301       -1.49573779
 C           -2.97728193       -1.12307132       -2.51216884
 C           -2.80781806        1.17027257       -2.06722482
 C           -0.98327355       -1.07194924       -3.94568195
 C            0.18576968       -0.21630269       -4.07054793
 C            0.02389916        1.15999601       -4.13484376
 C           -1.29619869        1.73599538       -3.90703985
 C           -2.20440361       -0.51482689       -3.58155461
 C           -2.30723624        0.92311792       -3.41410609
