   70
C70 / DATE: 7/ 1/2024 / Origin: Program Fullerene / C70 from database
 C            1.56151229        0.03373473        4.66978938
 C            0.78825554       -1.18903139        4.55905570
 C            1.45386925       -2.05972405        3.60350253
 C            2.68899418       -0.07618933        3.76261433
 C            2.71081391       -1.42673235        3.23542915
 C            2.62083286        1.02766587        2.82126261
 C            0.72347186        1.12366001        4.20268118
 C            1.39338747        1.75774214        3.08812435
 C           -0.59055546       -0.81673501        4.30736063
 C           -0.61052167        0.60381608        3.98623199
 C           -1.36434139       -1.67480023        3.54130799
 C            0.68574974       -2.69532413        2.62612564
 C           -0.70263825       -2.72296469        2.77769777
 C            1.25961233       -3.01725067        1.39047352
 C            3.19783130       -1.61165969        1.95288766
 C            2.53890467       -2.56616855        1.08137073
 C            2.98186390        0.79970424        1.49413096
 C            3.50635851       -0.44190982        1.14231879
 C            2.40990492        1.58769969        0.49515860
 C            0.63604153        2.17145546        2.00300653
 C            1.28230319        2.35894018        0.79269439
 C           -1.32075708        1.02842411        2.86537303
 C           -0.74357368        1.96343692        1.99068589
 C           -2.39240310       -1.11144175        2.68521277
 C           -2.39942340        0.25668860        2.43213364
 C           -1.55452345       -3.03821358        1.64343002
 C           -2.59777506       -2.02865046        1.57513556
 C            0.46966826       -3.52842711        0.36369990
 C           -0.97825801       -3.49265561        0.47338075
 C            0.81970415       -3.24538870       -1.02194485
 C            2.84921292       -2.18455225       -0.28753360
 C            3.45790339       -0.86142365       -0.24727256
 C            1.95292878       -2.48869986       -1.31066990
 C            2.74445000        1.35030434       -0.83998079
 C            3.11642068        0.06046724       -1.22887963
 C            2.31632135        2.26362187       -1.80083629
 C            0.59626875        2.99170946       -0.23493652
 C            1.27976173        3.20642092       -1.42830691
 C           -1.47033877        2.40394470        0.88071407
 C           -0.80497271        3.01206914       -0.19263589
 C           -3.16715101        0.71417056        1.37189348
 C           -2.76751670        1.93124557        0.69850868
 C           -2.99398652       -1.50631232        0.34463135
 C           -3.56306401       -0.23342779        0.34174096
 C           -1.51181871       -3.04344477       -0.79890400
 C           -0.41575566       -3.00449112       -1.75360696
 C           -2.48619669       -2.04912078       -0.84370075
 C           -0.44042659       -2.06365920       -2.77876594
 C            1.97676997       -1.71643125       -2.46919193
 C            2.67230510       -0.44051559       -2.44819889
 C            0.76018323       -1.54186426       -3.24909602
 C            2.01613353        1.80216555       -3.14740095
 C            2.02236702        0.44057134       -3.39891723
 C            0.79404951       -0.20982378       -3.83697680
 C            0.56176744        3.56966589       -2.63117353
 C            0.91081154        2.59596913       -3.65242097
 C           -1.54504620        3.38215052       -1.31829936
 C           -0.87925891        3.65550606       -2.57630825
 C           -3.33967030        1.88628426       -0.63665191
 C           -3.71405113        0.50373111       -0.89975412
 C           -2.75125103        2.64355921       -1.63755463
 C           -2.69457062       -1.39738445       -2.05744869
 C           -1.63186308       -1.39678280       -3.05242870
 C           -3.34180864       -0.09785187       -2.09141804
 C           -0.38201396        0.52988431       -3.95119736
 C           -0.31198713        1.91942884       -4.04647501
 C           -1.41678432        2.72686443       -3.55964212
 C           -2.56070649        2.06498718       -2.95933011
 C           -1.60376429       -0.08336570       -3.67887575
 C           -2.70796078        0.69472890       -3.13302955
