   70
C70 / DATE: 7/ 1/2024 / Origin: Program Fullerene / C70 from database
 C            0.99030171       -0.05873403        4.74075902
 C            2.29832386       -0.41745334        4.23626877
 C            2.22148486       -1.78254741        3.73823600
 C            0.15578953       -1.24537533        4.64921476
 C            0.82035812       -2.16437826        3.74827158
 C           -1.17550722       -0.80290764        4.32083029
 C            0.26765809        1.01871673        4.08671707
 C           -1.12453024        0.64030086        4.11871027
 C            0.79386254        1.58478889        2.92517563
 C            2.86751170        0.38941718        3.17971964
 C            2.17441156        1.50031707        2.70419682
 C            2.95201509       -1.84130681        2.48234730
 C            3.46232069       -0.50919070        2.20607217
 C            2.41661079       -2.57753750        1.44185761
 C            0.21557027       -2.53350181        2.54368281
 C            1.03060064       -3.01860237        1.52620546
 C           -1.82323549       -1.36235409        3.15384029
 C           -1.10455088       -2.15076002        2.25282265
 C           -1.94718054        0.93452586        2.96718692
 C           -2.63440555       -0.29279534        2.62086695
 C           -0.06341324        1.98810600        1.88117152
 C           -1.43654632        1.70423926        1.92459993
 C            0.47744378        2.57000119        0.73137367
 C            2.71314474        2.12578561        1.59121289
 C            1.83530333        2.85851703        0.70594783
 C            3.57091030       -0.04781168        0.89471414
 C            3.58974390        1.33540376        0.74317601
 C            2.64995315       -2.13728560        0.08052558
 C            3.11237132       -0.84659000       -0.16851807
 C            0.51925139       -3.10541183        0.17580228
 C            1.56681453       -2.66262541       -0.72694290
 C           -1.60554894       -2.26197690        0.94609574
 C           -0.78638683       -2.72417971       -0.09163062
 C           -3.07852204       -0.40863651        1.32114489
 C           -2.78673532       -1.57931142        0.62721771
 C           -2.17251239        1.71927462        0.73587281
 C           -3.18422870        0.76252347        0.58670033
 C           -0.27033374        2.59917311       -0.45270156
 C           -1.64049510        2.34690480       -0.39340689
 C            0.36189106        2.70612057       -1.70403511
 C            2.51908077        2.94459113       -0.56579887
 C            3.54304251        1.90825826       -0.57906596
 C            1.74763835        2.79151122       -1.77820578
 C            2.86225298       -0.28016093       -1.42735844
 C            3.24533806        1.03475629       -1.68848387
 C            2.45047223        1.82783637       -2.60439460
 C            1.19746027       -1.98012740       -1.87502578
 C            1.99206691       -0.91994988       -2.32006065
 C           -1.12840347       -2.44131303       -1.41345730
 C           -0.12132184       -2.09095924       -2.31982057
 C           -3.32608755       -1.71498732       -0.64994049
 C           -2.46103739       -2.18281143       -1.71534313
 C           -3.91992910        0.70345089       -0.58617603
 C           -4.11023320       -0.60776615       -1.18051000
 C           -2.39092112        2.40069771       -1.56500148
 C           -3.62060818        1.63822234       -1.64847964
 C           -0.32086681        2.31321398       -2.85607389
 C           -1.71037876        2.27535342       -2.83939240
 C            1.72656769        1.16724988       -3.57871981
 C            1.66415559       -0.28268670       -3.51703853
 C            0.37346986        1.61824307       -3.84886622
 C           -0.45517805       -1.59780026       -3.57609663
 C            0.46056927       -0.68369907       -4.22710060
 C           -0.28309982        0.52712578       -4.54196707
 C           -2.80856728       -1.46481149       -2.93327469
 C           -3.84208567       -0.49892074       -2.60229586
 C           -3.61559017        0.90249879       -2.90309017
 C           -2.41495333        1.27013409       -3.62658431
 C           -1.79897175       -1.10686947       -3.81712280
 C           -1.68339544        0.27687758       -4.26655663
