   70
C70 / DATE: 7/ 1/2024 / Origin: Program Fullerene / C70 from database
 C            1.58958137        0.08806694        4.95240668
 C            0.80191281       -1.13115704        4.99662197
 C            1.54524674       -2.16057384        4.29666189
 C            2.69755092       -0.13375831        4.03772672
 C            2.72389891       -1.53816603        3.70855670
 C            2.57695149        0.82041815        2.95313823
 C            0.75455112        1.13336327        4.38745891
 C            1.43503542        1.67247164        3.23128485
 C           -0.54141661       -0.81245379        4.54678842
 C           -0.57667883        0.59976357        4.19394177
 C           -1.21989173       -1.71765432        3.73823629
 C            0.87879475       -2.92178928        3.25218748
 C           -0.49025002       -2.78764489        3.06651439
 C            2.76516870       -1.91146837        2.30922363
 C            1.74545723       -2.91544357        2.09018370
 C            2.77911890        0.41518955        1.63304365
 C            2.94241015       -0.94203480        1.31977435
 C            2.33476836        1.27114946        0.62848081
 C            0.67060853        2.08698585        2.14978169
 C            1.28898401        2.15622293        0.91111013
 C           -1.28547349        0.98883999        3.05993641
 C           -0.71495333        1.92305768        2.17940620
 C           -2.20251620       -1.20924732        2.79890742
 C           -2.31442907        0.16277944        2.60521016
 C           -1.03488721       -2.92268704        1.72442621
 C           -2.20325788       -2.07433270        1.62893764
 C            1.20318602       -2.98816210        0.81524594
 C           -0.18488377       -2.99701903        0.63191566
 C            2.72830602       -1.34230893       -0.00388513
 C            1.98682962       -2.51108772       -0.22500859
 C            2.61763534        0.95338064       -0.69591959
 C            2.82270790       -0.38745163       -1.02206937
 C            2.26625890        1.87327327       -1.68009996
 C            0.60106182        2.75821687       -0.13483840
 C            1.23481942        2.84437194       -1.36980880
 C           -1.45451164        2.35147553        1.07311799
 C           -0.78904704        2.88378880       -0.04100269
 C           -3.07289527        0.58851841        1.52766440
 C           -2.74396780        1.85572950        0.91469185
 C           -2.55075216       -1.51581222        0.39955856
 C           -3.30109007       -0.34921120        0.43877561
 C           -0.69524613       -2.68457041       -0.63017962
 C           -1.77211555       -1.79091995       -0.73682950
 C            1.56594420       -2.81624035       -1.50761543
 C            0.13324700       -2.89735432       -1.72375853
 C            2.73829812       -0.80697648       -2.34946244
 C            2.14922682       -2.10013085       -2.61841739
 C            2.07991495        1.44359823       -3.05501554
 C            2.26426086        0.10663314       -3.37647093
 C            0.46357651        3.08758742       -2.57351799
 C            0.94665745        2.17440801       -3.60414791
 C           -1.53228942        3.27287180       -1.15948889
 C           -0.88989088        3.37354208       -2.46164012
 C           -3.33884757        1.83053958       -0.40525049
 C           -3.47954931        0.42584305       -0.76600502
 C           -2.85690039        2.70572087       -1.36212012
 C           -1.97238037       -1.05669130       -1.92589974
 C           -2.92306652       -0.01929006       -1.95766435
 C           -0.16209987       -2.25682451       -2.98532881
 C            1.10769855       -1.91868243       -3.61008274
 C            1.26526236       -0.59302582       -4.17703737
 C           -1.20530510       -1.34377970       -3.06901693
 C            0.05006272        1.52150853       -4.44473038
 C            0.11609158        0.07718959       -4.57131736
 C           -1.16919032       -0.44166495       -4.13037262
 C           -1.81681145        2.86596835       -3.45726732
 C           -2.94489096        2.29155520       -2.74899062
 C           -2.96253475        0.86702671       -3.03244054
 C           -1.35799937        1.87518628       -4.41204796
 C           -2.11106546        0.64937301       -4.17616711
