   70
C70 / DATE: 7/ 1/2024 / Origin: Program Fullerene / C70 from database
 C            1.51088253        0.05054321        4.63680177
 C            0.70833558       -1.15432518        4.62523817
 C            1.31403410       -2.09762274        3.70013003
 C            2.58991716       -0.13211381        3.68350852
 C            2.42981570       -1.42197215        3.05065813
 C            2.60774273        1.03022756        2.83453126
 C            0.67411011        1.13426867        4.14599329
 C            1.39950345        1.79049937        3.08614223
 C           -0.66413792       -0.75790977        4.38800910
 C           -0.62806160        0.58762111        3.83570573
 C           -1.49285029       -1.68142364        3.78467364
 C            0.47245841       -2.90251337        2.93600356
 C           -0.89538068       -2.88540425        3.22027526
 C            0.91952007       -3.33474850        1.68511090
 C            2.56837393       -1.51765349        1.66676480
 C            2.00160063       -2.61710297        1.02886351
 C            2.96730101        0.88251531        1.50694753
 C            2.91803233       -0.38720713        0.90877601
 C            2.70783372        1.97081258        0.69268925
 C            0.70772420        2.24337401        1.96970715
 C            1.48206929        2.62401457        0.87802736
 C           -1.17858213        0.82676386        2.57258586
 C           -0.58632835        1.76598040        1.71744062
 C           -2.44203632       -1.20736277        2.80037227
 C           -2.15242710       -0.04656587        2.07844013
 C           -1.84500796       -3.39954089        2.25156404
 C           -2.87755254       -2.38495335        2.08950718
 C           -0.02413265       -3.75101417        0.65568973
 C           -1.38046152       -3.77352863        0.92935907
 C            1.69975503       -2.54754892       -0.39100515
 C            0.43292337       -3.21828534       -0.61779509
 C            2.85095921       -0.45901024       -0.49260356
 C            1.98352874       -1.37697630       -1.07918259
 C            3.26277828        1.93214297       -0.57143915
 C            3.24663081        0.64727178       -1.24026420
 C            2.86958718        2.94191328       -1.52633886
 C            0.83930043        3.19316814       -0.21626346
 C            1.62751124        3.63641596       -1.27802899
 C           -1.14796537        2.00123218        0.46032244
 C           -0.51513782        2.89503453       -0.40831236
 C           -2.60919085        0.08684082        0.75751661
 C           -2.18269730        1.18106202       -0.01172612
 C           -3.14449761       -2.25353614        0.68370346
 C           -2.30110904       -3.19580573       -0.02960287
 C           -3.27587395       -0.98547553        0.13791004
 C           -0.47666994       -2.65529128       -1.50831851
 C           -1.85570991       -2.81003443       -1.29047719
 C            1.15193216       -0.97280229       -2.13082331
 C           -0.01391286       -1.69176242       -2.41463872
 C            2.64712851        0.86126101       -2.54702127
 C            2.73598472        2.28459926       -2.81248919
 C            1.48221785        0.16794439       -2.87488751
 C            1.03404026        3.87895241       -2.57381485
 C            1.64173004        2.93024322       -3.50094433
 C           -1.16632794        3.27029447       -1.57762330
 C           -0.40103087        3.76452833       -2.70625293
 C           -2.67881486        1.35591642       -1.31305981
 C           -2.19016795        2.39364669       -2.10944659
 C           -3.43124004       -0.96491354       -1.23806296
 C           -2.72863288       -1.99042860       -1.99660028
 C           -3.28702074        0.28016155       -1.95005714
 C           -0.85783119       -1.24940389       -3.42524736
 C           -2.28109574       -1.39264907       -3.23180346
 C           -2.86157468       -0.06490696       -3.29286808
 C            0.55092563        0.73340631       -3.76198706
 C            0.57171800        2.10735438       -4.01861998
 C           -0.64888990        2.86074279       -3.81234967
 C           -1.84737922        2.11435939       -3.50341820
 C           -0.64032891        0.05817874       -4.01406721
 C           -1.89784773        0.79850163       -3.93152735
