   70
C70 / DATE: 7/ 1/2024 / Origin: Program Fullerene / C70 from database
 C            1.22494662       -0.27238846        4.63043719
 C            2.50361921       -0.52817806        3.99599583
 C            2.44521686       -1.84576943        3.38533875
 C            0.39929733       -1.45761142        4.46481167
 C            1.14663282       -2.42440281        3.68407090
 C           -0.90503927       -1.03207528        3.98964886
 C            0.44656358        0.88048938        4.20699949
 C           -0.88296745        0.41700906        3.85457218
 C            1.04212868        1.86246576        3.43031596
 C            2.98474926        0.40458550        2.99419514
 C            2.37051207        1.64325528        2.86681049
 C            2.85508214       -1.71508830        1.99568683
 C            3.29503781       -0.34790368        1.78862353
 C            2.10633646       -2.33958555        1.00371808
 C            0.48616664       -3.12212345        2.68389545
 C            1.10389689       -3.23187374        1.37209383
 C           -1.56694173       -1.78323475        3.02074293
 C           -0.93811622       -2.89911085        2.46766257
 C           -2.60155467       -1.17098999        2.32075381
 C           -1.57710243        0.99894680        2.79424013
 C           -2.64107733        0.28165904        2.26725050
 C            0.24379159        2.54187574        2.42423878
 C           -0.97344562        2.00037863        2.02102610
 C            2.40427968        2.30225671        1.57609025
 C            1.15935654        3.03505861        1.41759599
 C            3.08710047        0.24404067        0.54662179
 C            2.91893935        1.62857425        0.47254381
 C            2.09134979       -1.80130633       -0.28286548
 C            2.67994060       -0.55414260       -0.52532719
 C            1.30909904       -2.40646068       -1.26926759
 C            0.04594978       -3.53473004        0.42786856
 C           -1.22557316       -3.28721661        1.09383245
 C            0.18699175       -3.15051347       -0.89818979
 C           -3.00327021       -1.67412987        1.01531406
 C           -2.24615897       -2.65605782        0.38637670
 C           -3.20301420        0.66656284        0.99339861
 C           -3.50603066       -0.54465341        0.24714105
 C           -1.45491470        2.29428040        0.73602258
 C           -2.67658206        1.75035754        0.31026671
 C            0.69168992        3.25102047        0.12996443
 C           -0.66316699        3.05686545       -0.14369984
 C            2.71283837        2.20982811       -0.77161255
 C            1.61204536        3.14870175       -0.91095672
 C            2.65081743       -0.00954752       -1.80930826
 C            2.71604892        1.37331260       -1.95629519
 C            1.45041846       -1.99657324       -2.59093955
 C            2.20124959       -0.78719164       -2.87202085
 C            0.29314141       -2.01968999       -3.47287046
 C           -0.97037401       -3.06121506       -1.66326700
 C           -2.21475408       -2.70169591       -1.00489284
 C           -0.93363715       -2.39701320       -2.95182201
 C           -3.37306930       -0.52798808       -1.13946427
 C           -2.83557449       -1.63947087       -1.78418455
 C           -2.05263451       -1.46434270       -3.00084427
 C           -3.08362303        1.90288341       -1.00794141
 C           -3.36399414        0.70654431       -1.78736175
 C           -1.12340711        3.35915162       -1.42354694
 C           -2.40018526        2.84562260       -1.85999339
 C            1.14853716        3.09389404       -2.28706193
 C            1.89257803        2.03761710       -2.95756580
 C           -0.20480486        3.26145643       -2.54630240
 C            1.58553176       -0.13965121       -4.01871268
 C            0.35432518       -0.84811262       -4.32310714
 C            1.27990837        1.27758968       -3.94466581
 C           -1.88006523       -0.18667817       -3.53094808
 C           -2.68465015        0.84832666       -3.06534502
 C           -2.21320591        2.21949205       -3.15949985
 C           -0.84742515        2.46561218       -3.58174651
 C           -0.73567577        0.10999382       -4.27401947
 C           -0.14407913        1.43900833       -4.20051944
