   70
C70 / DATE: 7/ 1/2024 / Origin: Program Fullerene / C70 from database
 C            1.56667150       -0.12719994        4.72027579
 C            0.75255545       -1.29825103        4.46522007
 C            1.21696369       -1.91666220        3.23587288
 C            2.57751855       -0.06151283        3.68218642
 C            2.34853794       -1.14301343        2.75173898
 C            2.55878773        1.28001470        3.15291358
 C            0.70869657        1.03788226        4.56880617
 C            1.31299418        1.89845854        3.58235750
 C           -0.63038605       -0.87768887        4.52714533
 C           -0.63430295        0.56668672        4.32672029
 C           -1.55456726       -1.62523857        3.81986710
 C            0.26481159       -2.36536993        2.32250883
 C           -1.06511660       -2.47416289        2.73790581
 C            0.54809448       -2.30629636        0.95482942
 C            2.42908696       -0.86240001        1.39463576
 C            1.68852071       -1.63563136        0.50689592
 C            2.92059369        1.47698299        1.82949104
 C            2.94103827        0.36787779        0.96281960
 C            2.54910566        2.70508212        1.30760145
 C            0.51455811        2.49045175        2.60494292
 C            1.20423909        3.16711867        1.60348271
 C           -1.37197567        1.10222678        3.26723051
 C           -0.74024210        1.92118686        2.31307517
 C           -2.71770910       -0.92959434        3.30961381
 C           -2.56667433        0.46812747        2.94558552
 C           -2.11827724       -2.55842771        1.74107969
 C           -3.17078958       -1.64651108        2.13583096
 C           -0.43312929       -2.67297497        0.03451375
 C           -1.77816406       -2.59128012        0.39825467
 C           -0.11434649       -2.73583612       -1.32132787
 C            1.90238314       -1.48142119       -0.85845955
 C            1.09469470       -2.18210862       -1.76114532
 C            3.09542335        0.57025429       -0.41522001
 C            2.74718284       -0.45465815       -1.30121864
 C            2.82191268        2.97940934       -0.07812660
 C            3.20707457        1.86999726       -0.91712304
 C            0.56185863        3.41502998        0.33271319
 C            1.61414616        3.54790970       -0.65636646
 C           -1.28841892        2.04642920        1.01925136
 C           -0.56436535        2.68298269        0.00706726
 C           -3.14387059        0.63862880        1.62861221
 C           -3.60407646       -0.66450144        1.16332488
 C           -2.53802703        1.49283208        0.71625019
 C           -2.69403044       -2.09177896       -0.52715914
 C           -3.44867826       -0.96330044       -0.18558709
 C           -1.16766843       -2.91574485       -2.21966340
 C           -2.46655762       -2.37849319       -1.86650582
 C           -0.97902129       -2.65564243       -3.63056528
 C            1.40530517       -2.16412145       -3.11985616
 C            0.34365628       -2.30579609       -4.09671505
 C            2.86630059       -0.20089801       -2.66628567
 C            2.26079417       -1.11124950       -3.61930732
 C            2.64638547        2.16670450       -2.21977797
 C            1.43484418        2.92252823       -1.95479623
 C            2.57372259        1.13941663       -3.13803323
 C           -0.83135050        2.39724694       -1.33295182
 C            0.20742953        2.34047874       -2.26618417
 C           -2.92949186        1.37881238       -0.61784014
 C           -3.47531192        0.10997112       -1.06806588
 C           -2.06799013        1.88327709       -1.67093459
 C           -2.79346544       -1.37941661       -2.87137942
 C           -1.86901402       -1.55703774       -3.97606008
 C           -3.07849214       -0.09092092       -2.44887403
 C           -2.17233379        0.99133383       -2.81176899
 C            0.23114621       -1.02637603       -4.77837544
 C            1.44912171       -0.29952243       -4.51763885
 C            1.35367716        1.00658093       -3.90447408
 C            0.15236115        1.41440509       -3.31659938
 C           -1.02687830       -0.44084094       -4.36141991
 C           -1.03747125        0.71555530       -3.57481413
