   70
C70 / DATE: 7/ 1/2024 / Origin: Program Fullerene / C70 from database
 C            1.24262208       -0.15988498        5.60848285
 C            0.42219563       -1.32942671        5.35026392
 C            1.12373344       -2.15610051        4.38651736
 C            2.43582645       -0.25959473        4.78259040
 C            2.29881581       -1.43300660        3.94267400
 C            2.62507312        1.02244863        4.14375630
 C            0.50633010        1.00469526        5.15108788
 C            1.43588393        1.82264207        4.40265302
 C           -0.80300474       -0.88392967        4.70959951
 C           -0.69956493        0.54168061        4.48190038
 C            0.16233028       -2.55260302        3.37399413
 C           -1.02564441       -1.73469384        3.55678215
 C            0.61517506       -2.72397324        2.07042933
 C            2.50643975       -1.33735544        2.56823516
 C            1.91068459       -2.30618388        1.76054069
 C            2.85954890        1.05676499        2.71093747
 C            2.89601206       -0.12154057        1.97894359
 C            1.00197259        2.35264476        3.12802293
 C            2.07570222        2.14700294        2.17833436
 C           -1.00487840        1.02185726        3.20884559
 C           -0.29063027        2.10512014        2.68431437
 C           -1.59595364       -1.17923395        2.41544895
 C           -1.73842780        0.20715631        2.33047705
 C           -0.33559510       -2.69347769        1.05401477
 C           -1.46474915       -1.88624659        1.22925239
 C            0.06539296       -3.03522620       -0.23622467
 C            2.32363951       -2.38077494        0.43892415
 C            1.41373672       -2.92933854       -0.55268196
 C            2.84256474       -0.01367017        0.58833219
 C            2.91384791       -1.19053078       -0.13957777
 C            1.72482024        2.11641814        0.83250458
 C            2.25096146        1.12192314        0.00565101
 C           -0.57582260        2.47668466        1.38187179
 C            0.48841816        2.64422990        0.49103710
 C           -2.18051998        0.76377007        1.12282900
 C           -1.79150270        2.07246840        0.85828316
 C           -2.15381546       -1.43194420        0.11309717
 C           -2.49629675       -0.07921798        0.04156080
 C           -0.86920058       -2.97373070       -1.26150066
 C           -2.06770456       -2.18521492       -1.04597980
 C           -0.42682170       -2.73529701       -2.62844950
 C            1.80294410       -2.36435450       -1.83234945
 C            2.59149747       -1.17731488       -1.54664279
 C            0.87780017       -2.29609978       -2.86710461
 C            1.83459382        1.08671871       -1.33785661
 C            2.22449205        0.01492616       -2.15039381
 C            0.18303195        2.80089528       -0.85379981
 C            0.84674917        1.98841963       -1.78502426
 C           -2.17265175        2.65547449       -0.33455318
 C           -1.10839150        3.22849179       -1.13128022
 C           -2.88107545        0.49079075       -1.18420087
 C           -2.97147480        1.88022759       -1.25346322
 C           -2.45422865       -1.60355507       -2.31199836
 C           -1.54738271       -2.12071722       -3.32776011
 C           -2.85637881       -0.27463768       -2.36416907
 C           -1.31347674       -1.36847880       -4.47059245
 C            1.10095293       -1.33016170       -3.84477366
 C            1.73120569       -0.07920136       -3.44416537
 C            0.05440689       -1.01533585       -4.79792184
 C            0.40708896        1.95009124       -3.12040836
 C            0.93728665        0.99904549       -3.98702086
 C            0.10109595        0.41798000       -5.02874159
 C           -1.56778223        3.26046330       -2.49679025
 C           -2.84451780        2.55926685       -2.52751412
 C           -0.73205639        2.66266957       -3.50978108
 C           -2.93768695        0.33440917       -3.61985230
 C           -2.13664646       -0.19604915       -4.71166690
 C           -1.26402717        0.87636174       -5.17183437
 C           -2.87240782        1.77438331       -3.73651855
 C           -1.65455546        2.07998054       -4.46959703
