   70
C70 / DATE: 7/ 1/2024 / Origin: Program Fullerene / C70 from database
 C            1.34085603       -0.11682109        4.18470756
 C            2.44738506       -0.24023006        3.25067033
 C            2.41934705       -1.59567385        2.72440587
 C            0.47161104       -1.26772009        3.99322314
 C            1.12749475       -2.16433324        3.07576184
 C           -0.83742410       -0.77363498        3.63819221
 C            0.50816912        1.06883322        4.14299282
 C           -0.87281670        0.62063273        4.03762202
 C            0.93207291        2.16103798        3.39751683
 C            2.75919751        0.81481244        2.39837791
 C            2.07592687        2.02836792        2.50546547
 C            3.46845973        0.54322095        1.23323603
 C            2.93857857       -1.85770218        1.45501625
 C            3.57602355       -0.83012989        0.75848724
 C            2.41938861       -2.94089173        0.74114401
 C            0.39046693       -2.76643075        2.06956502
 C            1.13425415       -3.48433330        1.14799145
 C           -1.40138492       -1.14986704        2.41717588
 C           -0.83301072       -2.19199970        1.67117232
 C           -2.37948284       -0.33197375        1.84266676
 C           -1.81456660        1.44470753        3.44666062
 C           -2.72986871        0.85786863        2.48617325
 C           -0.05247136        3.00270167        2.73747226
 C           -1.40379868        2.73549560        2.91044715
 C            1.79522609        2.80043236        1.30307893
 C            0.44741829        3.32113842        1.40564189
 C            3.28044309        1.39813903        0.07263981
 C            2.24839322        2.33199429        0.08025586
 C            3.51226488       -0.79818431       -0.69656112
 C            3.51898893        0.59354985       -1.11320084
 C            2.42713517       -2.91447312       -0.71321913
 C            2.71016854       -1.72094085       -1.36093004
 C            0.48463655       -4.02543294       -0.01795736
 C            1.32308925       -3.72850947       -1.17110220
 C           -1.42388902       -2.56152924        0.45478567
 C           -0.84893850       -3.56718414       -0.32579811
 C           -2.81754470       -0.57663712        0.53273685
 C           -2.42111939       -1.75938930       -0.10967026
 C           -3.49341074        0.43150093       -0.18444602
 C           -3.24918056        1.95275856        1.70374115
 C           -2.31711479        3.06123801        1.83204227
 C           -3.46229767        1.73020710        0.29780990
 C           -0.40387839        3.24470299        0.30462711
 C           -1.77635548        3.32812331        0.50899018
 C           -2.66839891        2.69874978       -0.44070083
 C            1.45102318        2.48410866       -1.05470922
 C            0.08087667        2.76167034       -0.91595671
 C            2.88858559        0.94260328       -2.29486025
 C            1.96288840        2.06012875       -2.27681201
 C            1.94846034       -1.31395730       -2.46535648
 C            2.26145450       -0.10351471       -3.08021972
 C            0.45812307       -3.20698871       -2.20743344
 C           -0.90325794       -3.45628830       -1.76959732
 C            0.75865966       -1.98324006       -2.80277388
 C           -2.82426409       -2.01398172       -1.42261554
 C           -1.91464408       -2.69918776       -2.32211730
 C           -3.59553331        0.32977592       -1.56288205
 C           -3.43596895       -0.95545571       -2.19140635
 C           -2.17999995        2.31525530       -1.68407815
 C           -0.81956471        2.48235323       -1.95998152
 C           -2.89019949        1.32052448       -2.35916377
 C            1.07574709        1.89177443       -3.40458847
 C            1.27855910        0.54421621       -3.92243235
 C           -0.34457237        2.07662301       -3.20458474
 C           -0.25660637       -1.32119966       -3.50654992
 C           -1.57595718       -1.75164864       -3.36893273
 C           -2.64281578       -0.76760672       -3.39771986
 C           -2.29607085        0.64033833       -3.49795451
 C           -0.02326976       -0.06777393       -4.06599279
 C           -1.01169588        0.98528011       -3.89018887
