   70
C70 / DATE: 7/ 1/2024 / Origin: Program Fullerene / C70 from database
 C            1.49334331        0.01907878        4.76472756
 C            0.70068303       -1.17733236        4.56345655
 C            1.37289246       -2.00645734        3.58002818
 C            2.63245822       -0.04975913        3.86624725
 C            2.54139458       -1.27341424        3.10854983
 C            2.67654108        1.18535844        3.13137936
 C            0.68042332        1.15406292        4.35735252
 C            1.44684284        1.91471643        3.40430526
 C           -0.65543150       -0.75869717        4.28637855
 C           -0.60862407        0.65420440        3.94086007
 C           -1.43416796       -1.58863432        3.50355258
 C            0.60349013       -2.71001095        2.65369164
 C           -0.79086019       -2.65575843        2.74086882
 C            1.19681308       -3.06771548        1.44603019
 C            2.80918855       -1.25027736        1.74180260
 C            2.38020022       -2.34516842        1.00535871
 C            3.11923793        1.17472391        1.81673397
 C            3.07116304       -0.03152936        1.08460169
 C            2.91616919        2.36747791        1.14145392
 C            0.80057099        2.50003474        2.32086325
 C            1.64350464        3.03615415        1.35499418
 C           -1.14194041        1.07154751        2.71861901
 C           -0.45765505        2.00779092        1.92460374
 C           -2.39875034       -0.97800910        2.61539607
 C           -2.17884500        0.32227698        2.15882993
 C           -1.60357034       -2.87499935        1.54905856
 C           -2.76189606       -2.00346574        1.66191746
 C            0.37210493       -3.32420759        0.27440859
 C           -0.98387792       -3.03579062        0.31079058
 C            2.34829071       -2.27746282       -0.43670549
 C            1.14408747       -2.95623129       -0.89379106
 C            3.12680387        0.00191760       -0.32602088
 C            2.75001631       -1.11693454       -1.08051113
 C            3.23711569        2.44564186       -0.25891128
 C            3.36967553        1.20779255       -0.98716908
 C            1.11678753        3.38639855        0.05811310
 C            2.19054689        3.22301286       -0.90202614
 C           -0.95561410        2.30715040        0.64747675
 C           -0.14637489        2.94906482       -0.29607988
 C           -2.74442196        0.71137143        0.94493061
 C           -2.18722056        1.78150054        0.24060896
 C           -3.40718829       -1.60829550        0.50858154
 C           -3.58981557       -0.18667123        0.28881739
 C           -1.63216042       -2.60282142       -0.85075100
 C           -2.94624313       -2.14615869       -0.75349991
 C            0.49404762       -2.47352433       -2.02194422
 C           -0.90147332       -2.37187502       -2.02655056
 C            2.38654497       -0.96789301       -2.41909043
 C            1.24172010       -1.71527590       -2.91877989
 C            2.77967074        1.43923078       -2.29311297
 C            1.88684146        2.57967997       -2.16641297
 C            2.35504329        0.34959811       -3.03076745
 C           -0.44798100        2.82836752       -1.64828849
 C            0.55421567        2.42984775       -2.54218758
 C           -2.68455425        2.11446291       -1.02363977
 C           -1.77861262        2.68635096       -2.00312179
 C           -3.86103222       -0.02436259       -1.12613878
 C           -3.48356095       -1.27584372       -1.78102037
 C           -3.56119476        1.18906036       -1.72362039
 C           -1.54466931       -1.84928987       -3.15269989
 C           -2.86358764       -1.25130208       -3.02006928
 C            0.57310414       -0.89365442       -3.91048978
 C            1.11623249        0.44980355       -3.78704837
 C            0.25076986        1.51920903       -3.55679404
 C           -0.79003110       -1.04828558       -4.10408464
 C           -2.10043254        2.12983068       -3.30175838
 C           -3.21946689        1.21918456       -3.13465102
 C           -2.88417801       -0.02629804       -3.79911795
 C           -1.05591898        1.43455606       -4.02740304
 C           -1.57718451        0.13294710       -4.41113106
