   70
C70 / DATE: 7/ 1/2024 / Origin: Program Fullerene / C70 from database
 C            0.95846739        0.16739856        4.83087272
 C            2.19362951       -0.13631639        4.14402638
 C            2.17216870       -1.55645795        3.84834219
 C            0.13371515       -1.03586615        4.81252758
 C            0.78871347       -1.98084476        3.93491486
 C           -1.22093059       -0.63506778        4.50808298
 C            0.13805074        1.24560494        4.32598152
 C           -1.23780731        0.81541673        4.47844543
 C            0.49402703        1.90816684        3.14971226
 C            2.48032170        0.54746413        2.89742746
 C            1.53433271        1.41107900        2.34980738
 C            2.85580949       -1.74491211        2.58724427
 C            3.12337570       -0.42273154        2.03425534
 C            2.36089293       -2.71375750        1.72814128
 C            0.15603204       -2.41950774        2.76825499
 C            0.94669592       -3.06000777        1.81731428
 C           -1.81570392       -1.08698405        3.26686066
 C           -1.06972740       -1.85878352        2.37277116
 C           -2.18636556        1.22106019        3.46093485
 C           -2.60095856        0.02170274        2.74843380
 C           -0.47394098        2.71380684        2.56430219
 C           -1.87843618        2.34225665        2.71150526
 C           -0.29212160        3.17068588        1.20098461
 C            1.50747336        1.59614042        0.95900977
 C            0.66196546        2.55324742        0.39531606
 C            3.04048102       -0.25976399        0.65659082
 C            2.34483452        0.83849993        0.13320044
 C            2.67968400       -2.59309637        0.32155247
 C            3.20484698       -1.39114973       -0.14005235
 C            0.44983976       -3.23065915        0.46441232
 C            1.59149736       -3.19694059       -0.42738480
 C           -1.44354461       -1.85638254        1.02243315
 C           -0.70767058       -2.58005785        0.07787541
 C           -2.81523983        0.08957561        1.37507288
 C           -2.48319786       -1.01905276        0.60442819
 C           -2.47842326        2.47451836        1.40201790
 C           -1.62504934        3.38509696        0.67116896
 C           -2.95075134        1.33600997        0.75038906
 C           -1.77317146        3.44008718       -0.69713890
 C            0.51661554        2.62819459       -0.99437232
 C           -0.58002134        3.32420987       -1.50856275
 C            2.28282158        0.99753097       -1.25469956
 C            1.26195019        1.77551030       -1.82245964
 C            3.26608075       -1.21763440       -1.51114563
 C            3.00432969        0.10351329       -2.04165503
 C            1.41336589       -2.78216434       -1.74248677
 C            2.49477508       -2.13003883       -2.33246708
 C           -0.93777670       -2.38134360       -1.28208235
 C            0.11660136       -2.50265148       -2.19896871
 C           -2.90585957       -1.05152735       -0.71545842
 C           -2.15005121       -1.82835418       -1.67757997
 C           -3.11944298        1.39067718       -0.63792164
 C           -2.74827669        2.55697267       -1.31151889
 C           -3.28366764        0.19939894       -1.34798262
 C           -1.04902262        3.03435184       -2.84317492
 C           -2.40258298        2.50609344       -2.72059300
 C            0.93883248        1.65458807       -3.19066673
 C           -0.29288667        2.10970203       -3.64574204
 C            2.64995474       -0.08116251       -3.43183209
 C            2.33902748       -1.49343621       -3.62140513
 C            1.55206901        0.68091847       -3.97026314
 C           -0.07206709       -2.10106343       -3.52473018
 C            1.05395100       -1.58235717       -4.27804740
 C            0.70256795       -0.24224028       -4.70533049
 C           -2.26764607       -1.17502947       -2.96853042
 C           -2.91407033        0.11225861       -2.75570084
 C           -2.44468512        1.23695722       -3.42047217
 C           -1.22689599        1.14658974       -4.20620502
 C           -1.22465039       -1.28736674       -3.87703791
 C           -0.73715389       -0.10057534       -4.57094194
