   70
C70 / DATE: 7/ 1/2024 / Origin: Program Fullerene / C70 from database
 C            1.62443473       -0.01804753        4.62311298
 C            0.81897902       -1.21851970        4.50817692
 C            1.26824533       -1.95727497        3.34056162
 C            2.61676800       -0.05546077        3.56740187
 C            2.45558391       -1.29130471        2.83037918
 C            2.51377682        1.17913920        2.82293601
 C            0.75401019        1.11747646        4.36578342
 C            1.26818857        1.81982991        3.20921486
 C           -0.56804754       -0.81309224        4.56256231
 C           -0.60490101        0.62623284        4.31898405
 C           -1.49434664       -1.60845037        3.90779177
 C            0.31465903       -2.43436798        2.43839341
 C           -1.02436664       -2.47970452        2.83354857
 C            0.64052418       -2.50971199        1.07775406
 C            2.64814491       -1.25387470        1.45756304
 C            1.92415512       -2.13804178        0.67128621
 C            2.81313256        1.14740753        1.47195947
 C            3.12209220       -0.07657532        0.87086726
 C            2.24307925        2.12646261        0.67651197
 C            0.38700482        2.21086442        2.20075851
 C            0.91428106        2.48076748        0.92976753
 C           -1.47222609        1.12339250        3.34757621
 C           -0.98890153        1.98977543        2.35331640
 C           -2.71402524       -0.97601962        3.44700443
 C           -2.67001549        0.44066227        3.14140898
 C           -2.06329619       -2.53395471        1.82292872
 C           -3.14559683       -1.66698320        2.24793278
 C           -0.36986487       -2.68315799        0.12053834
 C           -1.70584704       -2.51395080        0.48472602
 C           -0.04438509       -2.75880256       -1.23948306
 C            2.28498176       -2.25827310       -0.65988193
 C            1.27995114       -2.62390318       -1.63835371
 C            3.40934402       -0.07759431       -0.49849059
 C            3.12742275       -1.22667368       -1.24301150
 C            2.76479277        2.27673252       -0.59651872
 C            3.50559054        1.15529767       -1.14537161
 C            1.90571053        2.76872980       -1.64884684
 C            0.05794911        2.77982721       -0.13742878
 C            0.53020338        2.71754563       -1.44904280
 C           -1.85412468        2.43498120        1.35804832
 C           -1.30816870        2.85841094        0.07999368
 C           -3.41763674        0.63999270        1.91380500
 C           -3.63033778       -0.66748479        1.31109602
 C           -3.08257838        1.70417870        1.09377968
 C           -2.58704229       -1.94450818       -0.42756597
 C           -3.34697782       -0.83518162       -0.04076797
 C           -1.04718512       -2.60119941       -2.19589181
 C           -2.37393115       -2.18516547       -1.77392975
 C           -0.74192374       -1.92271049       -3.44808264
 C            1.58698938       -1.92665864       -2.87950036
 C            2.78794964       -1.13232601       -2.65686926
 C            0.54429738       -1.43648405       -3.66588790
 C            3.39807416        1.23349562       -2.59167723
 C            2.48560945        2.32480721       -2.90008294
 C            2.96084504        0.06700039       -3.33186306
 C            0.70075978       -0.23979861       -4.36872534
 C            1.60393118        1.88172644       -3.95152080
 C            1.94627907        0.50239005       -4.27190941
 C           -0.33448378        2.32080281       -2.48427484
 C            0.17357819        1.92739227       -3.72383875
 C           -0.37269381        0.74422219       -4.35432145
 C           -2.20407286        2.40499983       -0.96609193
 C           -3.19566500        1.54340988       -0.34540716
 C           -3.41528767        0.27862524       -0.88292818
 C           -1.67287999        2.03353790       -2.19714459
 C           -2.86622096       -1.21699830       -2.73008559
 C           -1.87591252       -1.07856463       -3.78190896
 C           -1.64654487        0.33695033       -3.99658045
 C           -3.19983984        0.10707515       -2.24535992
 C           -2.34199108        1.05667756       -2.93882380
