   70
C70 / DATE: 7/ 1/2024 / Origin: Program Fullerene / C70 from database
 C            1.45090560        0.03519956        4.78745369
 C            0.67167598       -1.17308690        4.59646540
 C            1.31017877       -1.95971159        3.55524933
 C            2.62584779       -0.06847069        3.94495355
 C            2.62160674       -1.37916013        3.32076765
 C            2.65437027        1.09612794        3.08025498
 C            0.65305283        1.14503283        4.29388128
 C            1.35906600        1.74475802        3.18266382
 C           -0.70188899       -0.76850760        4.38929723
 C           -0.68477531        0.65058037        4.06391472
 C           -1.49734791       -1.58914337        3.60706570
 C            0.53321287       -2.39155373        2.47671900
 C           -0.84344794       -2.48214868        2.65419647
 C            1.05730803       -2.34418061        1.18015137
 C            3.17906713       -1.48672236        2.05878344
 C            2.42652655       -2.16328918        1.01727903
 C            3.20467117        0.95667151        1.81507985
 C            3.71904756       -0.28723268        1.44431911
 C            2.74471165        1.79757402        0.80751360
 C            0.66715053        2.02745102        2.00688253
 C            1.40224017        2.20282338        0.83437696
 C           -1.37788950        1.07005134        2.93291487
 C           -0.70977564        1.78035480        1.92055291
 C           -2.60340210       -0.98147872        2.89598742
 C           -2.54440005        0.38275012        2.61033832
 C           -1.70718842       -2.58545558        1.49200463
 C           -2.94466288       -1.90762177        1.83377736
 C            0.20409877       -2.20539468        0.07444038
 C           -1.17068873       -2.40976394        0.21965630
 C            0.72489663       -1.88966782       -1.18746653
 C            2.93828151       -1.67949274       -0.25190604
 C            3.86162615       -0.58976619        0.03172483
 C            2.07827280       -1.55806298       -1.33583610
 C            3.42042279        1.75925103       -0.40398772
 C            3.91391142        0.46985804       -0.86016552
 C            2.85385196        2.44684897       -1.54479319
 C            0.72807429        2.48648188       -0.35695530
 C            1.45156772        2.79919734       -1.49817439
 C           -1.37278097        2.03010954        0.71322168
 C           -0.63485726        2.21254431       -0.45861355
 C           -3.34122864        0.87917484        1.58963545
 C           -2.73803053        1.79293395        0.63494661
 C           -3.75080840       -1.45111580        0.80840158
 C           -4.15982766       -0.05777808        0.84333310
 C           -2.03223807       -2.10159096       -0.83524451
 C           -3.35503999       -1.73441702       -0.55887524
 C           -0.12711374       -1.80721826       -2.29293683
 C           -1.51682665       -1.86847174       -2.11179537
 C            0.41001202       -1.42880365       -3.52520953
 C            2.48398070       -0.77342699       -2.41769448
 C            3.37998590        0.27202068       -2.19280759
 C            3.04750906        1.58878433       -2.69796303
 C            1.67683520       -0.72273341       -3.54845787
 C            0.88644381        2.48983881       -2.79572093
 C            1.87591085        1.70932303       -3.53519556
 C            1.44419156        0.56837770       -4.19196882
 C           -1.23613866        2.04641542       -1.72136874
 C           -0.45739433        2.13183296       -2.88931612
 C           -3.34958014        1.55904061       -0.65941434
 C           -4.23484097        0.41259976       -0.52479988
 C           -4.00111029       -0.73079275       -1.38653739
 C           -2.57898906        1.64805652       -1.81382213
 C           -2.37759109       -1.33377219       -3.07513482
 C           -3.45598776       -0.48040521       -2.62882906
 C           -2.98267768        0.86585227       -2.89437203
 C           -0.42944804       -0.78393908       -4.51207956
 C            0.08473171        0.56222738       -4.68164194
 C           -0.86130259        1.45278422       -4.03989028
 C           -1.83881290       -0.65883434       -4.23596768
 C           -2.12715157        0.76028295       -4.05326212
