   70
C70 / DATE: 7/ 1/2024 / Origin: Program Fullerene / C70 from database
 C            1.42107357       -0.15247162        5.14305321
 C            0.55648932       -1.31977139        5.16019773
 C            1.16679730       -2.33872057        4.32545810
 C            2.56205681       -0.45731250        4.29892928
 C            2.45886739       -1.84441216        3.88321503
 C            2.64740266        0.57018357        3.27351327
 C            0.69133098        0.93330277        4.51171528
 C            1.50426125        1.45448670        3.42967161
 C           -0.70097425       -0.94833058        4.53861943
 C           -0.63648441        0.45801209        4.18432935
 C            0.19356725       -2.74021731        3.31943120
 C           -0.97997943       -1.90101936        3.47641295
 C            0.63762273       -3.01966357        2.03110379
 C            2.87519748       -2.17346332        2.60275715
 C            2.01078197       -3.00033862        1.77910910
 C            3.02736937        0.20566778        1.98534852
 C            3.37144423       -1.12111583        1.72881868
 C            2.62591426        1.00569558        0.91807892
 C            0.86323254        1.90283677        2.27928169
 C            1.58222937        1.92049251        1.09331823
 C           -1.17446237        0.83295096        2.96108263
 C           -0.52467014        1.80495207        2.19793361
 C           -1.60826794       -1.42922850        2.32998008
 C           -1.97220587       -0.08560675        2.28709131
 C           -0.25209039       -2.87644331        0.96156088
 C           -1.40129583       -2.09205244        1.11959344
 C            0.18557685       -3.20460567       -0.31660955
 C            2.48293071       -2.85031891        0.41470394
 C            3.27325811       -1.62805663        0.36643480
 C            1.60302191       -3.11192346       -0.62100011
 C            2.98276720        0.63093401       -0.37279964
 C            3.06596689       -0.73117441       -0.67795230
 C            2.77432019        1.54777234       -1.39240240
 C            0.99656755        2.50462865       -0.02753645
 C            1.73166775        2.54183149       -1.20426999
 C           -1.15884579        2.21103733        1.02283922
 C           -0.39465046        2.63065096       -0.07467345
 C           -2.65262459        0.36894983        1.16878137
 C           -2.42252302        1.68618427        0.78149614
 C           -2.11506942       -1.64115262        0.00229112
 C           -2.97818991       -0.55976392        0.18385985
 C           -0.54533283       -2.72195543       -1.47210496
 C           -1.67418288       -1.94251079       -1.29199603
 C            1.72984234       -2.35372581       -1.85114198
 C            2.52131530       -1.20952428       -1.87599604
 C            0.41851842       -2.31313057       -2.47487415
 C            2.68435246        1.05967001       -2.75010101
 C            2.36694610       -0.33886384       -2.94763660
 C            1.05282743        2.73028896       -2.47091495
 C            1.68517616        1.85106757       -3.44218649
 C           -1.04404626        2.90054333       -1.29076989
 C           -0.33143606        2.85508014       -2.50062560
 C           -3.15844456        2.19681973       -0.27363207
 C           -2.44249887        2.92718560       -1.30321694
 C           -3.75243228       -0.12603990       -0.88595610
 C           -4.06675299        1.28878418       -0.94459584
 C           -2.12627502       -1.17362389       -2.36426110
 C           -3.34908860       -0.52363193       -2.22042747
 C            0.10483808       -1.24316044       -3.30645721
 C            1.14041392       -0.40492282       -3.73062590
 C            0.84369630        0.94183965       -4.19867294
 C           -1.21756363       -0.78999188       -3.36822761
 C           -0.97424163        2.46720109       -3.67919420
 C           -0.47929152        1.30131537       -4.38783542
 C           -1.49837766        0.28992450       -4.20665523
 C           -3.16597944        2.73414175       -2.54823562
 C           -4.14323998        1.67976606       -2.33799107
 C           -3.72860135        0.53730573       -3.13354614
 C           -2.41820918        2.38681088       -3.73166506
 C           -2.75131359        1.00993078       -4.08322340
