   70
C70 / DATE: 7/ 1/2024 / Origin: Program Fullerene / C70 from database
 C            1.48296075        0.10004649        4.81470742
 C            0.68350961       -1.09981754        4.64214127
 C            1.48358797       -2.05318230        3.91161548
 C            2.63390347       -0.00908851        3.93345033
 C            2.70253640       -1.37771957        3.48406142
 C            2.53552023        1.04111200        2.93564319
 C            0.68741209        1.22418356        4.35918063
 C            1.43007533        1.90141262        3.31730991
 C           -0.59492996       -0.70537703        4.08426435
 C           -0.64064795        0.74247729        4.02904643
 C           -1.13749146       -1.40746965        3.01552565
 C            0.90694830       -2.68567052        2.73984224
 C           -0.39752939       -2.40242181        2.35548346
 C            2.85195726       -1.62576674        2.06643608
 C            1.92370743       -2.68117505        1.71510072
 C            2.71026874        0.74639980        1.57851768
 C            2.99821951       -0.56509177        1.17044348
 C            2.22522537        1.66490768        0.63719153
 C            0.70704738        2.49690413        2.29934648
 C            1.32810644        2.64849266        1.06541649
 C           -1.29609501        1.33682490        2.95276835
 C           -0.68826195        2.43142384        2.33931453
 C           -2.19747583       -0.81675118        2.33836612
 C           -2.22114920        0.58291153        2.21862673
 C           -2.88295441       -1.60829788        1.43043018
 C           -0.79079855       -2.78820422        1.07175429
 C           -2.12589538       -2.62507309        0.72655673
 C            1.53218525       -2.74965690        0.38783289
 C            0.17838771       -2.90673477        0.06426167
 C            2.89532670       -0.87643064       -0.18348291
 C            2.34898711       -2.11589497       -0.53316621
 C            2.38853866        1.40673794       -0.73082288
 C            2.88789845        0.15694188       -1.11662728
 C            1.82972297        2.27710803       -1.68316372
 C            0.72770542        3.48727152        0.14196036
 C            0.92113670        3.24165118       -1.26867171
 C           -1.40529379        3.12678463        1.37714766
 C           -0.66827128        3.83136274        0.34249076
 C           -2.92239612        1.20136280        1.16905895
 C           -2.53656850        2.47149729        0.74526323
 C           -3.78839336       -0.98837025        0.49435943
 C           -3.68475316        0.43736046        0.28898511
 C           -2.50581024       -2.57543051       -0.67071029
 C           -3.61560149       -1.64366421       -0.79008994
 C           -0.19536033       -2.85630570       -1.29033671
 C           -1.51759104       -2.56885816       -1.64658235
 C            2.14801627       -2.41945193       -1.86645141
 C            0.80680203       -2.80488449       -2.26607581
 C            3.01143441       -0.17151566       -2.46425772
 C            2.68424499       -1.52426502       -2.86965851
 C            1.71859750        1.86746179       -3.00687708
 C            2.46375352        0.71891384       -3.46072297
 C            0.38865401        1.80621971       -3.59352032
 C           -0.38434376        3.27234624       -1.91134088
 C           -1.36403812        3.63800236       -0.91782566
 C           -2.46777706        2.73849465       -0.68472421
 C           -0.68259801        2.27754339       -2.83544943
 C           -3.54770021        0.67328284       -1.14135713
 C           -3.55552384       -0.61565383       -1.81317703
 C           -2.69660167        1.69109489       -1.57114272
 C           -1.81116137        1.46038218       -2.63962249
 C           -1.79247834       -1.93941974       -2.86211000
 C           -2.71247819       -0.81351613       -2.89200897
 C           -1.97608437        0.31716067       -3.42322842
 C            0.53704000       -2.18261341       -3.55224721
 C            1.72505736       -1.45151962       -3.95755903
 C            1.59834122       -0.05834125       -4.33607253
 C            0.28287775        0.55881669       -4.32612306
 C           -0.71528624       -1.63378726       -3.78300889
 C           -0.84635473       -0.22747291       -4.15568573
