   70
C70 / DATE: 7/ 1/2024 / Origin: Program Fullerene / C70 from database
 C            1.45998046        0.00447790        4.75688916
 C            0.66786468       -1.19507828        4.56899182
 C            1.35544709       -2.04906027        3.61749913
 C            2.61138942       -0.08317401        3.87568567
 C            2.55384065       -1.34586403        3.17757936
 C            2.64857526        1.12066576        3.08291309
 C            0.65424580        1.13256092        4.31897288
 C            1.42368311        1.86476234        3.34541440
 C           -0.68375653       -0.78177687        4.26175985
 C           -0.63920900        0.63178607        3.91625711
 C           -1.44742182       -1.61880236        3.47063160
 C            0.60431638       -2.75548887        2.67671270
 C           -0.79073550       -2.69018281        2.72551881
 C            1.22723701       -3.14982281        1.49423978
 C            2.89043414       -1.38579406        1.82902323
 C            2.46128859       -2.49179387        1.10162770
 C            3.09117064        1.04994428        1.76579344
 C            3.24791237       -0.20564370        1.15378567
 C            2.81690677        2.16037308        0.97251233
 C            0.77496846        2.43972150        2.25977960
 C            1.60276931        2.90593022        1.25191409
 C           -1.18188959        1.05080920        2.69911832
 C           -0.52661046        2.02345689        1.92476485
 C           -2.40525422       -1.01825314        2.56810225
 C           -2.20413804        0.29091530        2.13012043
 C           -1.57006684       -2.90593787        1.51177514
 C           -2.73485703       -2.03954693        1.59698692
 C            0.43923371       -3.36177231        0.28812964
 C           -0.91615908       -3.05970340        0.29047907
 C            2.52410399       -2.48508832       -0.34699527
 C            1.25191585       -2.97592400       -0.85174059
 C            3.54956186       -0.26791117       -0.20899397
 C            3.13902838       -1.42501346       -0.98754481
 C            2.98421544        2.09741256       -0.46751709
 C            3.37793258        0.90924231       -1.04741725
 C            1.02932463        3.31164429       -0.00450798
 C            1.90804357        2.86198637       -1.07237872
 C           -1.08305593        2.40632991        0.69177163
 C           -0.33724132        3.20638147       -0.19168233
 C           -2.77327362        0.68804388        0.92317076
 C           -2.28703860        1.82004860        0.26923798
 C           -3.35388384       -1.64189152        0.42872349
 C           -3.56967376       -0.22286349        0.22524346
 C           -1.52430626       -2.60252614       -0.88248762
 C           -2.84132813       -2.14715582       -0.82731718
 C            0.64747317       -2.33797409       -1.92965703
 C           -0.74942893       -2.33355196       -2.01690039
 C            2.59045028       -0.94760702       -2.24364160
 C            2.76205393        0.49384554       -2.29455115
 C            1.41186898       -1.49079042       -2.74377566
 C            1.33086095        2.45239412       -2.27439335
 C            1.76045009        1.26535062       -2.88787542
 C           -0.78491889        3.40768729       -1.48992150
 C            0.07770866        2.98495639       -2.58373720
 C           -2.87132548        2.20049829       -0.93932182
 C           -2.14509881        3.07423604       -1.83042712
 C           -3.79744470       -0.04154795       -1.19707819
 C           -3.34041499       -1.25619010       -1.86134123
 C           -3.52769293        1.19575126       -1.75873615
 C           -1.36645334       -1.84872369       -3.16778624
 C           -2.64535566       -1.16907040       -3.05724650
 C            0.79843769       -0.80446549       -3.78488458
 C            0.95669441        0.64143585       -3.84402729
 C           -0.56929753       -1.12252880       -4.13202779
 C           -0.75753878        2.37160933       -3.59861029
 C           -2.13984613        2.46980863       -3.15381759
 C           -2.96201020        1.27285109       -3.09682463
 C           -2.52676676        0.11430164       -3.73207208
 C           -0.32160344        1.21559553       -4.22461731
 C           -1.25629216        0.12170499       -4.43927041
