   70
C70 / DATE: 7/ 1/2024 / Origin: Program Fullerene / C70 from database
 C            1.48515969        0.10552529        4.76525026
 C            0.71495127       -1.11456113        4.61361460
 C            1.58507009       -2.09412833        4.00748114
 C            2.67991458       -0.02506793        3.94463655
 C            2.77994540       -1.40393893        3.53694370
 C            2.62162701        0.99387324        2.91685565
 C            0.69523892        1.19248490        4.21828803
 C            1.50090693        1.86174040        3.22549913
 C           -0.52671424       -0.78183925        3.93541360
 C           -0.57991050        0.66294209        3.78774706
 C           -0.97370652       -1.57233494        2.87590294
 C            1.07188814       -2.86012244        2.89375251
 C           -0.25798968       -2.72190940        2.50398834
 C            2.92441662       -1.70147536        2.12373857
 C            2.08851816       -2.85208442        1.85782310
 C            2.84655934        0.66804281        1.57444289
 C            2.95243508       -0.67564744        1.17864437
 C            2.48724438        1.62418794        0.61917094
 C            0.85823853        2.44474657        2.14932107
 C            1.61905823        2.64996919        1.01367324
 C           -1.14237587        1.18294408        2.62738655
 C           -0.51782597        2.25083823        1.97784506
 C           -1.89152866       -1.01430641        1.98042167
 C           -2.00377145        0.38051424        1.89314739
 C           -2.47747472       -1.82529201        1.00622368
 C           -0.61773389       -3.38388119        1.33643110
 C           -1.80357835       -2.97312880        0.61134195
 C            1.68111909       -3.08152987        0.55170973
 C            0.42474547       -3.65325959        0.35830189
 C            2.71350356       -1.01400802       -0.15616193
 C            2.21669275       -2.29183221       -0.46445388
 C            2.63410633        1.32249710       -0.73714673
 C            2.74249668       -0.01125552       -1.12916175
 C            2.34277800        2.29745301       -1.69142307
 C            1.09496184        3.51390602        0.07114828
 C            1.61031398        3.47543706       -1.27769979
 C           -1.11493545        2.77508448        0.82318382
 C           -0.35073717        3.61707778        0.00520290
 C           -2.71555401        0.95556224        0.84695153
 C           -2.26512837        2.16747762        0.30134068
 C           -3.38145022       -1.26596351        0.10795173
 C           -3.62907434        0.15834777        0.16601752
 C           -3.25552131       -1.61159942       -1.30055134
 C           -1.55576318       -3.18228695       -0.80731635
 C           -0.18205542       -3.63146978       -0.96354021
 C           -2.10778913       -2.27918325       -1.71113038
 C            1.87663491       -2.60873303       -1.77552446
 C            0.56265854       -3.16960260       -2.03689518
 C            2.61119311       -0.34167805       -2.47677335
 C            2.16744976       -1.67002141       -2.83591661
 C            1.81560124        1.89984166       -2.98613905
 C            1.92815259        0.57659341       -3.36795997
 C            0.48949150        3.65072583       -2.18570078
 C           -0.71462016        3.81922886       -1.38898499
 C            0.53638297        2.56986993       -3.15368216
 C           -2.78850254        2.64156338       -0.90413926
 C           -1.89490167        3.26676227       -1.85665071
 C           -4.12099865        0.55407044       -1.13753317
 C           -3.73910680       -0.48938984       -2.07618732
 C           -3.68564866        1.81499385       -1.68671104
 C           -0.61753964        1.81843718       -3.37105758
 C           -1.84046633        2.37849484       -3.00864950
 C           -2.84651304        0.10356941       -3.04775695
 C           -3.01820716        1.53751234       -2.95139818
 C           -1.29076208       -1.70349178       -2.69432816
 C           -0.08121981       -2.31322283       -3.01545193
 C            0.96196030       -1.52637151       -3.64170011
 C            0.73941438       -0.10845437       -3.84219151
 C           -1.56115745       -0.41317662       -3.17254540
 C           -0.51056690        0.43393267       -3.55433033
