   70
C70 / DATE: 7/ 1/2024 / Origin: Program Fullerene / C70 from database
 C            1.52662812        0.05947211        4.73893636
 C            0.70870093       -1.11852116        4.53724103
 C            1.35476606       -1.96036904        3.54280675
 C            2.67558233       -0.05022500        3.86050095
 C            2.51162116       -1.24044917        3.04179742
 C            2.82195918        1.22191626        3.18562260
 C            0.75078425        1.20508003        4.29511656
 C            1.56246472        1.93484781        3.34541367
 C           -0.64358143       -0.66959269        4.26716880
 C           -0.54531989        0.72304604        3.86022163
 C           -1.44753579       -1.51067344        3.51992445
 C            0.54328899       -2.63404616        2.64093416
 C           -0.82545365       -2.66813737        2.90139155
 C            0.97650054       -2.77891540        1.32205273
 C            2.71174144       -1.13466128        1.66553000
 C            1.88562156       -1.85345350        0.79351728
 C            3.39919732        1.21447257        1.92499636
 C            3.43208247       -0.04269766        1.18763769
 C            2.99591499        2.23935747        0.97864642
 C            0.96157873        2.45976824        2.20765338
 C            1.79911224        2.91381032        1.19202456
 C           -1.01643667        1.10153356        2.60216395
 C           -0.35981520        2.10625969        1.88887173
 C           -2.29650287       -0.93202996        2.49704954
 C           -1.96156874        0.30511528        1.95218425
 C           -1.72583585       -3.11509150        1.85956706
 C           -2.65549847       -2.01828917        1.60537190
 C            0.21620999       -3.56394385        0.45922036
 C           -1.18633779       -3.79279232        0.77796987
 C            0.31016184       -3.33597002       -0.96982779
 C            1.84726610       -1.53139805       -0.57484206
 C            0.96285422       -2.20037293       -1.42526713
 C            3.39134821        0.27971693       -0.22419447
 C            3.27878581        1.72575435       -0.34920668
 C            2.66631010       -0.52233058       -1.09170841
 C            2.58546302        2.25676567       -1.43373194
 C            1.22774731        3.58416634        0.12363974
 C            1.76651026        3.36361162       -1.20918165
 C           -0.90492099        2.55276915        0.68558662
 C           -0.21363571        3.54660257       -0.00017185
 C           -2.29977872        0.57437120        0.62278862
 C           -1.82507112        1.74021256        0.00575447
 C           -3.00437775       -1.71958943        0.29482678
 C           -3.00112689       -0.38550869       -0.11890504
 C           -1.92768533       -3.77911173       -0.46567087
 C           -0.96918193       -3.67987202       -1.55145400
 C           -2.90512204       -2.72681168       -0.66328395
 C           -1.53333410       -2.78724982       -2.54460465
 C           -2.84364000       -2.36511138       -2.06431725
 C            0.56984871       -1.61125525       -2.63184355
 C           -0.71086226       -1.84219100       -3.15251374
 C            2.40402984       -0.01270343       -2.35861796
 C            2.35516369        1.43131899       -2.53598035
 C            1.35645364       -0.60147360       -3.17102571
 C            1.29039065        1.72898465       -3.48488629
 C            0.73345684        0.46369775       -3.93884015
 C            0.70943053        3.69479327       -2.14743161
 C           -0.52593507        3.81802359       -1.38391792
 C            0.44859732        2.81139821       -3.26661546
 C           -2.24094819        2.06850174       -1.29492171
 C           -1.52508189        3.00695844       -2.03495932
 C           -0.99035693        2.62335040       -3.33155849
 C           -3.41575866       -0.08824853       -1.41145709
 C           -3.30653388       -1.11421136       -2.44041263
 C           -3.04495904        1.18180678       -2.00382457
 C           -1.32795287       -0.85530049       -3.92070216
 C           -0.61845658        0.37208332       -4.24042636
 C           -1.50651904        1.49073252       -3.94350865
 C           -2.69653487       -0.49590302       -3.60076592
 C           -2.73591293        0.93820224       -3.40355185
