   70
C70 / DATE: 7/ 1/2024 / Origin: Program Fullerene / C70 from database
 C            1.24233519        0.11201347        4.58247166
 C            2.25149574       -0.12180416        3.56517308
 C            2.32301183       -1.55557808        3.38609440
 C            0.38812209       -1.06246290        4.61254255
 C            1.11286007       -2.12927902        3.95935837
 C           -0.89810468       -0.66714055        4.06728770
 C            0.37657751        1.26103051        4.44035126
 C           -0.97581429        0.77024445        4.21144215
 C            0.66355775        2.21118172        3.38619264
 C            2.29301858        0.70577845        2.44238333
 C            1.72625667        1.98405682        2.51484112
 C            2.67136180        0.17627870        1.19750688
 C            2.45584103       -2.07954172        2.04278656
 C            2.68649365       -1.21110832        0.98886254
 C            0.45104284       -2.86094150        2.89960571
 C            1.44088412       -3.09761672        1.86562070
 C           -1.34829373       -1.25648582        2.88522138
 C           -0.83607592       -2.50301888        2.50541566
 C           -2.10870390       -0.50418045        1.97471997
 C           -1.53931958        1.54526051        3.12587737
 C           -0.61009175        2.61330859        2.81961425
 C           -2.14521861        0.89559264        2.06336483
 C           -0.61064319        3.14116513        1.53238693
 C            1.81512051        2.82464940        1.41450259
 C            0.61558299        3.53317402        0.99894571
 C            2.86597214        1.03494167        0.10900185
 C            2.48593729        2.36639414        0.21402497
 C            3.06865129        0.50367681       -1.16275206
 C            2.51617846       -1.70665244       -0.29836487
 C            2.93724249       -0.92593736       -1.36402685
 C            0.98478253       -3.35927683        0.57755667
 C            1.66786488       -2.80198212       -0.50829932
 C           -1.32358927       -3.11120018        1.35750300
 C           -0.36277604       -3.68053910        0.42676959
 C           -2.69226242       -1.13614182        0.87015710
 C           -2.34631650       -2.44777118        0.57326260
 C           -3.29687451       -0.37062857       -0.12437571
 C           -2.40583827        1.64232843        0.92057972
 C           -1.64162692        2.78667257        0.65621759
 C           -3.19162848        1.07422172       -0.07050024
 C           -1.66731149        3.36512566       -0.61327470
 C            0.72812702        3.79811396       -0.42311201
 C            1.85655555        3.02248484       -0.92471018
 C           -0.43055779        3.88172545       -1.17840306
 C            2.48554911        1.17116475       -2.31869650
 C            1.75842269        2.34316625       -2.13979190
 C            2.39222472       -1.14722095       -2.69014023
 C            1.98836110        0.14662133       -3.22617373
 C            1.23960535       -3.11580785       -1.79864762
 C            1.60615857       -2.26410876       -2.91872186
 C           -0.96179768       -3.66192078       -0.89457453
 C           -2.16555174       -2.84239185       -0.81773639
 C           -0.13300853       -3.55321322       -1.99969430
 C           -3.16582212       -0.77459573       -1.51770285
 C           -2.46293799       -1.93249196       -1.83321222
 C           -3.12302256        1.57322424       -1.43097689
 C           -2.42288284        2.74020558       -1.68701433
 C           -2.97142673        0.42645216       -2.31776679
 C           -0.37732203        3.48408154       -2.56986812
 C            0.70743387        2.62426938       -3.00967264
 C           -1.63185462        2.82787651       -2.89778420
 C            0.74190418        0.30523998       -3.83578076
 C           -2.01323594        0.43586989       -3.33374864
 C            0.12241689        1.55033449       -3.79723969
 C           -1.32121331        1.60966129       -3.62253855
 C            0.44775300       -2.13761718       -3.77980501
 C           -0.64256911       -2.88955930       -3.18166036
 C           -1.78128525       -1.99828738       -3.04618352
 C           -0.04792386       -0.81153418       -4.09857775
 C           -1.46180183       -0.76955023       -3.75611405
