   70
C70 / DATE: 7/ 1/2024 / Origin: Program Fullerene / C70 from database
 C            1.37303924       -0.05703986        5.23547976
 C            0.50930211       -1.22386072        5.21790892
 C            1.15718919       -2.23868762        4.40886373
 C            2.52167550       -0.33529493        4.38847274
 C            2.44179327       -1.72014065        3.96894064
 C            2.59039763        0.69927529        3.36708337
 C            0.64311380        1.03796594        4.62673259
 C            1.49125182        1.61940398        3.60514559
 C           -0.72651206       -0.85596422        4.54612096
 C           -0.66008755        0.55214073        4.21475714
 C            0.20534578       -2.67621278        3.40061020
 C           -0.94855351       -1.79647540        3.46517506
 C            0.68137552       -3.03065112        2.14502642
 C            2.86367238       -2.03979556        2.68840955
 C            2.05392532       -2.94892068        1.89998647
 C            2.89266052        0.34214609        2.04823084
 C            3.26827392       -0.97211979        1.78095643
 C            2.43171788        1.15666929        1.00324959
 C            0.87905561        2.17210091        2.49471242
 C            1.62684640        2.24940957        1.33143514
 C           -1.12579620        0.95784564        2.96973788
 C           -0.50474038        2.04501655        2.36153445
 C           -1.47807475       -1.32257168        2.26846595
 C           -1.77546073        0.03711828        2.14576223
 C           -0.19276037       -2.96244192        1.06097375
 C           -1.27003453       -2.06788819        1.10932659
 C            0.27113559       -3.40192693       -0.17156899
 C            2.51860643       -2.81015912        0.53248953
 C            3.13321159       -1.49447917        0.43286870
 C            1.67623907       -3.21585346       -0.48741796
 C            2.46235856        0.69562886       -0.32417555
 C            2.73754046       -0.64976836       -0.59801659
 C            2.03554145        1.53599007       -1.36038940
 C            1.11839300        3.05146935        0.32592566
 C            1.43335947        2.74856771       -1.05344811
 C           -1.09510765        2.57062721        1.21552461
 C           -0.29714207        3.35361073        0.38515394
 C           -2.27899017        0.50497560        0.93375924
 C           -2.15538305        1.86422624        0.64744051
 C           -1.89322683       -1.65722097       -0.07255338
 C           -2.49211924       -0.39222576       -0.11557912
 C           -0.48874427       -3.09935039       -1.36551440
 C           -1.65839418       -2.36278342       -1.25640555
 C            1.72628235       -2.50131328       -1.74823109
 C            2.27395801       -1.22439059       -1.78359193
 C            0.45666368       -2.73681952       -2.40867288
 C            1.88436377        1.02645950       -2.64617408
 C            1.95402957       -0.40592223       -2.85507532
 C            0.84069919        1.55556960       -3.51611549
 C            0.32440235        3.22864917       -1.86787330
 C           -0.74132486        3.64269723       -0.96305767
 C            0.00316936        2.57124347       -3.05489188
 C           -2.76273660        2.36263206       -0.49982389
 C           -2.05355426        3.35360757       -1.29708342
 C           -3.08924730        0.06558225       -1.29313922
 C           -3.37894792        1.42547971       -1.42118579
 C           -2.22021386       -1.90769661       -2.44165540
 C           -3.10167434       -0.76084985       -2.41402178
 C            0.03015922       -1.85731273       -3.39754896
 C            0.85967440       -0.78525012       -3.74078225
 C            0.29475349        0.44336435       -4.28342939
 C           -1.34418178       -1.74802711       -3.59380793
 C           -3.07757659       -0.18705601       -3.75141765
 C           -1.03203117        0.47218784       -4.69130269
 C           -1.87536727       -0.67225197       -4.40852637
 C           -1.28584974        2.69910896       -3.57475384
 C           -2.36397036        3.10273376       -2.69008959
 C           -3.37061533        2.05819236       -2.73037329
 C           -1.81951739        1.66585669       -4.44558506
 C           -3.10724057        1.25117015       -3.90298142
