   70
C70 / DATE: 7/ 1/2024 / Origin: Program Fullerene / C70 from database
 C            1.26132552       -0.12182557        4.50308153
 C            2.52750941       -0.34111420        3.83175439
 C            2.43419772       -1.60522694        3.11827188
 C            0.42781048       -1.28824673        4.25793138
 C            1.07600333       -2.08997182        3.24449974
 C           -0.91703853       -0.82441788        3.99245136
 C            0.47915209        1.05811159        4.17471117
 C           -0.89074077        0.62929272        3.95889065
 C            1.01679048        2.03839727        3.35184064
 C            3.01381400        0.65774701        2.89664811
 C            2.34206305        1.86536494        2.76854764
 C            2.96829037       -1.40202969        1.78949473
 C            3.44740279       -0.03566148        1.69569325
 C            2.29312172       -1.92625667        0.69724168
 C            0.36009033       -2.39451012        2.09194546
 C            1.02815096       -2.50695936        0.86570570
 C           -1.68068252       -1.47516781        3.02875656
 C           -1.03590808       -2.32278240        2.11647544
 C           -2.85359937       -0.83230388        2.64129243
 C           -1.68764764        1.27047398        3.01253624
 C           -2.86694511        0.62150029        2.66469858
 C            0.16721521        2.66321619        2.35127829
 C           -1.08593005        2.13007247        2.08137793
 C            2.34099453        2.52861733        1.47971687
 C            1.01258365        3.07148855        1.24625761
 C            3.36282729        0.60248986        0.45896812
 C            3.01136873        1.95963274        0.40282821
 C            2.66311396       -1.47171158       -0.56148609
 C            3.21995412       -0.19418137       -0.68405441
 C            2.14642569       -2.12434549       -1.67105761
 C            0.33566802       -2.98143232       -0.25492361
 C            0.91682216       -2.87853287       -1.51693855
 C           -1.74776469       -2.85023708        1.04506637
 C           -1.03690609       -3.19539973       -0.17352825
 C           -3.57158877       -1.26974743        1.45810346
 C           -3.02498153       -2.26738556        0.66720050
 C           -3.61046602        1.07933213        1.51264136
 C           -4.12636741       -0.09166780        0.82172165
 C           -1.60088105        2.24452185        0.78509562
 C           -2.92033970        1.90068334        0.54193625
 C            0.51499775        3.05197255       -0.05454271
 C           -0.74526305        2.49126159       -0.29407779
 C            2.77209634        2.53690295       -0.83905190
 C            1.44874537        3.09581000       -1.08268223
 C            3.34677927        0.39441563       -1.93839660
 C            3.18017449        1.82677379       -2.03243200
 C            2.11657691       -1.46024964       -2.96189008
 C            2.68667765       -0.20067237       -3.08901355
 C            0.07427012       -2.59756091       -2.67029786
 C            0.83020324       -1.74382797       -3.57901774
 C           -1.88293138       -2.83979869       -1.30361541
 C           -3.04884960       -2.13885243       -0.78494292
 C           -1.29636962       -2.40846288       -2.48845254
 C           -3.90683523        0.10844762       -0.59636829
 C           -3.28374882        1.41353547       -0.76951059
 C           -3.46797905       -0.95038252       -1.38926960
 C           -1.13415280        2.13389312       -1.60033598
 C           -2.40562280        1.58076852       -1.83138092
 C            1.05370568        2.73935782       -2.42751007
 C            2.19150179        2.09130122       -3.06089018
 C            1.96723136        0.85554460       -3.78953600
 C           -0.21656064        2.22785315       -2.65932663
 C            0.17910371       -0.75257298       -4.29983693
 C            0.68807673        0.60904391       -4.26888915
 C           -0.39789939        1.45813073       -3.80758473
 C           -1.98574629       -1.49069196       -3.27558938
 C           -2.98906224       -0.63943300       -2.65763604
 C           -2.59323263        0.73380257       -2.91738123
 C           -1.26764464       -0.67262838       -4.23817692
 C           -1.62315051        0.71649201       -3.98503632
