   70
C70 / DATE: 7/ 1/2024 / Origin: Program Fullerene / C70 from database
 C            1.17746644        0.24216715        4.77458967
 C            2.42299804        0.05563978        4.05977243
 C            2.51302152       -1.34975239        3.71805227
 C            0.37662006       -0.96124888        4.59009985
 C            1.18743332       -1.92539808        3.87341905
 C           -0.89195465       -0.56327916        4.01372182
 C            0.34851938        1.37282046        4.42080496
 C           -0.99129715        0.87049181        4.16378108
 C            0.71605932        2.18684787        3.27540533
 C            2.66321054        0.81368485        2.84122222
 C            1.76038981        1.79446236        2.43462138
 C            3.15051555       -1.44642277        2.41751122
 C            3.18863404       -0.10659982        1.84768359
 C            2.77712921       -2.49640114        1.59670384
 C            0.63941238       -2.60793462        2.79065103
 C            1.52631118       -3.18349491        1.88318273
 C           -1.28683473       -1.13504206        2.80975924
 C           -0.66237078       -2.30471430        2.37140425
 C           -2.11654572       -0.41770691        1.93613781
 C           -1.53009095        1.63559199        3.05893997
 C           -0.53283956        2.61432892        2.67329153
 C           -2.20520049        0.97953205        2.03810154
 C           -0.51974894        3.01791551        1.34687082
 C            1.68179184        2.12640722        1.08198012
 C            0.70401283        3.03387733        0.68187018
 C            2.84375828        0.08300117        0.50990492
 C            2.26555618        1.28984042        0.12240519
 C            2.81882836       -2.30312265        0.16298369
 C            2.78951489       -1.00939541       -0.35849222
 C            1.03039508       -3.72974337        0.63137117
 C            1.95567375       -3.31680225       -0.41318156
 C           -1.20878986       -2.98971079        1.29247150
 C           -0.33530607       -3.71637830        0.38563238
 C           -2.66902232       -1.06575707        0.82404551
 C           -2.24438680       -2.35143939        0.49956436
 C           -3.30983337       -0.31704095       -0.16114354
 C           -2.48870073        1.72036091        0.89447569
 C           -1.67631343        2.81958974        0.59342109
 C           -3.26305681        1.13024199       -0.09372985
 C           -1.74483885        3.42116648       -0.65931100
 C            0.74023791        3.51560998       -0.61954067
 C           -0.51120737        3.92900485       -1.22978432
 C            2.03545432        1.53227677       -1.23218971
 C            1.48197518        2.75512426       -1.60878128
 C            2.35457500       -0.82210380       -1.67314208
 C            2.06072162        0.46444376       -2.13420644
 C            1.49278327       -3.12106797       -1.70298772
 C            1.91807757       -1.92661397       -2.40638977
 C           -0.82225589       -3.51314224       -0.96973389
 C           -2.01723934       -2.69211175       -0.89796811
 C            0.07949619       -3.30771855       -2.00214973
 C           -3.14818475       -0.69856232       -1.55634290
 C           -2.27402232       -1.73450858       -1.87736221
 C           -3.23555608        1.64628978       -1.45148242
 C           -2.50292320        2.79138936       -1.72708993
 C           -3.18135786        0.51098814       -2.35907893
 C           -0.47329207        3.55898120       -2.63204701
 C            0.79142491        2.88572590       -2.88137676
 C           -1.71719149        2.87583634       -2.94957790
 C            1.55914518        0.62766046       -3.42871207
 C            0.82267957        1.83003057       -3.77822307
 C            0.97400645       -1.73535963       -3.48667658
 C           -0.26252079       -2.38014928       -3.06705938
 C           -1.43606325       -1.62650571       -2.99622103
 C            0.90333287       -0.49154945       -4.08704189
 C           -2.41497744        0.58006660       -3.51195533
 C           -1.68620121        1.80044787       -3.82971411
 C           -0.41527453        1.41671006       -4.42207292
 C           -1.58004524       -0.55207317       -3.87502574
 C           -0.39571800       -0.02970228       -4.53606138
