   70
C70 / DATE: 7/ 1/2024 / Origin: Program Fullerene / C70 from database
 C            1.15849009        0.03056248        4.33896094
 C            2.48166866       -0.36450535        3.91378251
 C            2.43820587       -1.78455511        3.60192187
 C            0.32274515       -1.15943636        4.30523424
 C            1.04143496       -2.17574604        3.57257540
 C           -0.96613904       -0.75585819        3.80913075
 C            0.46279039        1.06061833        3.58632863
 C           -0.92895797        0.68080171        3.58912969
 C            1.01554874        1.54263633        2.40622358
 C            3.06316629        0.30592953        2.77307478
 C            2.37937800        1.34470201        2.14754897
 C            3.23951443       -2.00512011        2.41377852
 C            3.69933321       -0.70288651        1.94280244
 C            2.78981668       -2.93163085        1.48848910
 C            0.50385396       -2.67567986        2.38385506
 C            1.37137973       -3.27686862        1.47081643
 C           -1.59080470       -1.53029886        2.84163898
 C           -0.78682982       -2.28897029        1.97380041
 C           -2.78784016       -1.01184709        2.37028594
 C           -1.77780980        1.18048173        2.61301724
 C           -2.93004679        0.43348256        2.41103289
 C            0.16177627        2.00689396        1.39304776
 C           -1.23095244        1.87552560        1.51922754
 C            0.70296013        2.62190647        0.26112454
 C            2.90634386        1.79593092        0.95089427
 C            2.08219386        2.59004276        0.06614950
 C            3.82783767       -0.45090847        0.57425402
 C            3.66269271        0.85911537        0.12903267
 C            3.23173053       -2.79514525        0.11713041
 C            3.69209379       -1.49644371       -0.34086185
 C            0.96820850       -3.41418890        0.08677610
 C            2.13949309       -3.20748018       -0.74439199
 C           -1.16893253       -2.45376470        0.62879222
 C           -0.22837483       -2.85195679       -0.32195676
 C           -3.30228761       -1.44364876        1.09182688
 C           -2.43415104       -2.04565879        0.19259642
 C           -3.83962135        0.81793674        1.36606428
 C           -4.18986039       -0.38801288        0.63103127
 C           -2.05741457        2.22737824        0.43848609
 C           -3.38569914        1.79048698        0.40279480
 C           -0.11937647        2.96757150       -0.81453311
 C           -1.50139981        2.75742797       -0.73016355
 C            0.48091342        3.25283400       -2.04647562
 C            2.60417841        2.38800137       -1.27214839
 C            3.29011237        1.10623276       -1.25238922
 C            1.77421600        2.67230457       -2.33734912
 C            3.07121589       -1.24779566       -1.63585133
 C            2.04779286       -2.25480883       -1.83722473
 C            2.79744605        0.05680924       -2.02520288
 C           -0.33295093       -2.37958530       -1.62716020
 C            0.78925985       -1.83968359       -2.25314664
 C           -2.68598107       -1.93387425       -1.17725228
 C           -1.58680156       -2.06441243       -2.11607990
 C           -4.20374695       -0.04251715       -0.77772667
 C           -3.96433547        1.39120177       -0.86494538
 C           -3.57398683       -0.89152802       -1.67742046
 C           -2.30328681        2.83811520       -1.87561644
 C           -3.41496223        1.91977935       -2.01886357
 C           -0.27297236        3.11312303       -3.27367065
 C           -1.69824940        2.92185401       -3.18670284
 C            1.51221766        1.61194000       -3.29097788
 C            1.72197565        0.29885872       -2.88253831
 C            0.66867161       -0.62886381       -2.93911662
 C            0.28528866        1.96353192       -3.97333761
 C           -1.70874364       -1.00949851       -3.10531065
 C           -2.98045446       -0.33567107       -2.88321542
 C           -3.07442350        1.03028909       -3.12043038
 C           -2.01488443        1.67908538       -3.87354803
 C           -0.58243433       -0.26653781       -3.45831167
 C           -0.76123258        0.97199650       -4.06873698
