   70
C70 / DATE: 7/ 1/2024 / Origin: Program Fullerene / C70 from database
 C            1.36001629       -0.09850234        4.34307484
 C            2.64352541       -0.34916333        3.71588303
 C            2.60234263       -1.67869431        3.13311824
 C            0.50916259       -1.25175715        4.09823667
 C            1.26574627       -2.21204360        3.31815096
 C           -0.75400799       -0.77548366        3.56558608
 C            0.61755561        1.09011238        3.96551470
 C           -0.71558086        0.67628387        3.56337674
 C            1.25312945        2.09005392        3.24401992
 C            3.11715528        0.56932200        2.69577668
 C            2.51847879        1.81360123        2.56860084
 C            3.12350744       -1.59549150        1.77954938
 C            3.40099492       -0.19886216        1.49482648
 C            2.51806203       -2.35908476        0.78872708
 C            0.65075810       -2.81245593        2.22761637
 C            1.44449500       -3.17954490        1.14263560
 C           -1.31036159       -1.43330677        2.47135417
 C           -0.71663717       -2.61370261        2.02258143
 C           -2.16922227       -0.72772240        1.62136353
 C           -1.36782046        1.34936707        2.53680342
 C           -2.31832853        0.65332192        1.79564165
 C            0.46171498        2.91859542        2.35271515
 C           -0.84003589        2.54190938        2.02628383
 C            2.44485290        2.42172111        1.25358662
 C            1.34583661        3.36582025        1.29454773
 C            3.05082089        0.30731841        0.24380256
 C            2.62159966        1.63626697        0.11522637
 C            2.64097604       -1.94258421       -0.53634960
 C            2.86265322       -0.58839140       -0.80956083
 C            2.19194402       -2.78866368       -1.54753030
 C            0.89991572       -4.02935889        0.18766616
 C            1.34963969       -3.91510863       -1.18751110
 C           -1.34644820       -3.33317486        1.01577345
 C           -0.54116886       -4.19649265        0.16676652
 C           -2.65480178       -1.33535640        0.45669830
 C           -2.30439976       -2.64863470        0.16721896
 C           -3.12218019       -0.53283929       -0.58343177
 C           -3.13837972        1.37026857        0.93418591
 C           -3.64462827        0.71211660       -0.25271111
 C           -1.45239489        3.13717694        0.92017248
 C           -2.72282443        2.70591296        0.54861615
 C            0.78173329        3.77430501        0.10008189
 C           -0.66631846        3.82996724       -0.00462261
 C            2.12810706        2.09923479       -1.10983370
 C            1.27782317        3.20335123       -1.14214916
 C            2.63305958       -0.09055846       -2.08660819
 C            2.20000876        1.28572273       -2.23372787
 C            1.64561688       -2.22020629       -2.76640064
 C            1.90161436       -0.89086786       -3.05408344
 C            0.17267848       -3.87799416       -2.04318954
 C           -0.99283582       -4.02504412       -1.20398589
 C           -1.98471274       -2.97094807       -1.20857751
 C            0.28100406       -2.69911602       -2.87968228
 C           -2.71710815       -0.81729620       -1.89783329
 C           -1.89550304       -1.92038683       -2.11694780
 C           -0.75498293       -1.76523591       -2.92533490
 C           -2.73709246        0.17071171       -2.87455425
 C           -3.83398101        1.72364778       -1.27314229
 C           -3.19846708        2.94462928       -0.80493372
 C           -3.35381420        1.45453674       -2.60811988
 C           -0.98480250        3.76909490       -1.42263779
 C            0.18766997        3.23757933       -2.10769718
 C           -2.25363893        3.37519608       -1.81885157
 C           -2.38909845        2.48609141       -2.95635722
 C            1.11385970        1.31109009       -3.20378473
 C            0.82362238       -0.06461010       -3.57209531
 C           -0.49186967       -0.52142545       -3.51030937
 C           -1.51922609        0.40946685       -3.61735701
 C            0.05764841        2.20128011       -3.03327427
 C           -1.20665725        1.82503529       -3.48259379
