   70
C70 / DATE: 7/ 1/2024 / Origin: Program Fullerene / C70 from database
 C            0.99547938        0.00565360        4.62928418
 C            2.25203567       -0.36642715        4.02253376
 C            2.22220463       -1.80274834        3.80507444
 C            0.16985483       -1.19269723        4.71566902
 C            0.84702874       -2.23418332        3.97464560
 C           -1.17301197       -0.83082272        4.32686763
 C            0.19706341        1.03120046        3.99264916
 C           -1.18075531        0.60168853        4.09287282
 C            0.61432717        1.61203889        2.79405664
 C            2.62788597        0.25283410        2.76786353
 C            1.82621428        1.24361110        2.19493915
 C            2.87263078       -2.07448929        2.53501606
 C            3.15017268       -0.79151523        1.90734247
 C            2.36742307       -3.10078470        1.75184468
 C            0.21786247       -2.86484101        2.90078885
 C            1.03593534       -3.60621535        2.05160093
 C           -1.75299408       -1.45896635        3.15506427
 C           -1.02194263       -2.39369727        2.42556338
 C           -2.04322049        0.84851620        2.95865282
 C           -2.48006134       -0.42982353        2.43235845
 C           -0.34143282        2.25385331        2.01067106
 C           -1.66829565        1.80679770        2.03672265
 C            0.07990940        2.96691637        0.89261000
 C            2.02695682        1.54796092        0.84274172
 C            1.23624690        2.53179591        0.23266878
 C            2.98137770       -0.63640237        0.53752446
 C            2.75024614        0.64616488        0.05379093
 C            2.45258746       -2.98280496        0.30946205
 C            2.63135496       -1.72939409       -0.26394987
 C            0.49049880       -4.14550284        0.82537009
 C            1.43769831       -3.85451201       -0.24242900
 C           -1.41828087       -2.65325649        1.10874101
 C           -0.80154963       -3.67197223        0.38852991
 C           -2.62537601       -0.55407574        1.05057380
 C           -2.27538461       -1.76253319        0.44822826
 C           -2.37816499        1.83607712        0.84757880
 C           -2.71689352        0.60901577        0.26566938
 C           -0.91080730        3.62233397        0.17156962
 C           -2.18866524        2.94968880        0.04837842
 C           -0.59108739        4.20245777       -1.11083386
 C            1.44641423        2.85186590       -1.11924935
 C            0.62755663        3.78041314       -1.75944062
 C            2.81915633        0.83276287       -1.31533782
 C            2.23516571        2.01733829       -1.90353111
 C            2.16170178       -1.49853768       -1.56099527
 C            2.49967118       -0.29678289       -2.16975369
 C            0.67307551       -3.38874140       -1.38497132
 C           -0.72951499       -3.57085126       -1.05465037
 C            1.06045205       -2.21890976       -2.03947644
 C           -2.53291076       -1.93285662       -0.90755942
 C           -1.65688475       -2.77928411       -1.70355545
 C           -2.82858182        0.49888301       -1.12903847
 C           -2.85418259       -0.76618644       -1.71423207
 C           -2.50055062        2.87565969       -1.35971533
 C           -1.69414386        3.89855703       -2.00788028
 C           -2.64728466        1.62218777       -1.94583267
 C            0.31664838        3.59908312       -3.17037760
 C           -1.13155523        3.63266794       -3.31466195
 C            1.78930664        1.65201615       -3.23843161
 C            1.69427429        0.19978665       -3.26909029
 C            0.80801203        2.41436742       -3.85369461
 C            0.13675779       -1.59453255       -2.88608551
 C           -1.20548971       -1.96802812       -2.81514401
 C           -2.22603310       -0.96145014       -3.01074676
 C            0.47626855       -0.41264504       -3.55002197
 C           -2.35220230        1.44837492       -3.30117038
 C           -1.53626360        2.42586435       -4.00357947
 C           -0.33233947        1.73867951       -4.44547214
 C           -1.90565069        0.15056910       -3.76429752
 C           -0.52594401        0.31878914       -4.19031256
