   70
C70 / DATE: 7/ 1/2024 / Origin: Program Fullerene / C70 from database
 C            1.53817064        0.07332149        4.37578573
 C            0.72876544       -1.12711294        4.25092850
 C            1.48662294       -2.08740928        3.48500996
 C            2.65986498       -0.05548231        3.46290131
 C            2.67855287       -1.41737622        2.98112469
 C            2.57125415        1.00805921        2.48657162
 C            0.73437816        1.19254341        3.92555736
 C            1.42445016        1.83301022        2.82580845
 C           -0.57243655       -0.74371171        3.75257487
 C           -0.60596642        0.70768990        3.68084387
 C           -1.13323218       -1.47478111        2.70548937
 C            0.81592017       -2.94292322        2.61884630
 C           -0.52037201       -2.66125457        2.27435366
 C            1.62173533       -3.63390613        1.71893280
 C            3.05359763       -1.66345815        1.66374770
 C            2.76672536       -2.93458500        1.16452017
 C            2.79146381        0.70840073        1.14701220
 C            3.18212775       -0.58656086        0.77170020
 C            2.28796710        1.58572402        0.18233861
 C            0.65854147        2.34494007        1.78558722
 C            1.23389102        2.44549735        0.52689425
 C           -1.32495707        1.27865659        2.64442129
 C           -0.73237320        2.28378122        1.86972385
 C           -2.10746005       -0.85778125        1.90675305
 C           -2.33175207        0.51619803        2.07013559
 C           -2.56246664       -1.48554249        0.74065231
 C           -1.15781997       -3.41076976        1.28690077
 C           -2.10063296       -2.74827618        0.41080527
 C            1.02663803       -4.43149355        0.66945793
 C           -0.39759835       -4.33078599        0.45989132
 C            2.79212070       -3.18977710       -0.26621548
 C            1.68674084       -4.08189654       -0.57784471
 C            3.41892247       -0.84867640       -0.57402962
 C            3.05140921       -2.13958979       -1.12844559
 C            2.64914728        1.41204344       -1.15708538
 C            3.06888506        0.15088563       -1.56647249
 C            2.05956116        2.21824069       -2.12735651
 C            0.53529786        3.12524431       -0.46458577
 C            1.13148621        3.24692732       -1.71443614
 C           -1.49117317        2.85389847        0.84376169
 C           -0.84151259        3.34583454       -0.30070254
 C           -3.21584947        1.17279373        1.22407673
 C           -2.83958438        2.49773810        0.77458370
 C           -3.02673971       -0.69000746       -0.29844757
 C           -3.69131798        0.47049904        0.05138432
 C           -2.37912667       -0.77192581       -1.53865207
 C           -1.64771096       -2.94908468       -0.95255717
 C           -0.61555858       -3.95616700       -0.93021473
 C            0.66564315       -3.63130995       -1.51094161
 C           -1.49695175       -1.82397570       -1.75710203
 C            2.12088946       -1.88551473       -2.21609152
 C            2.30325534       -0.51291952       -2.61039902
 C            0.83546420       -2.40454161       -2.14890206
 C           -0.26035026       -1.54950160       -2.35832102
 C            1.44531751        1.55227631       -3.26523525
 C            1.24531250        0.18460788       -3.16478552
 C           -0.06161065       -0.29518372       -2.96375951
 C            0.32797170        3.55711028       -2.87959575
 C            0.36722062        2.38316030       -3.73757477
 C           -1.59593366        3.89494064       -1.34423509
 C           -1.06162886        3.89681364       -2.69015544
 C           -3.60382131        2.75472085       -0.42911012
 C           -3.97569479        1.45637732       -0.97045738
 C           -2.98149095        3.50324640       -1.49637618
 C           -2.32475716        0.34017547       -2.37557963
 C           -1.15207938        0.58297850       -3.10381123
 C           -0.95936139        1.81681115       -3.73501663
 C           -1.84328331        2.92842876       -3.44685440
 C           -3.30676336        1.32416856       -2.24559684
 C           -3.04594444        2.67553873       -2.69212991
