   70
C70 / DATE: 7/ 1/2024 / Origin: Program Fullerene / C70 from database
 C            1.42841567        0.07872360        5.14418461
 C            0.63964026       -1.13955431        5.08472254
 C            1.45153892       -2.15714662        4.44590788
 C            2.61461176       -0.12106411        4.32857810
 C            2.68154145       -1.52383299        3.99272644
 C            2.58371811        0.84657854        3.24423079
 C            0.64968123        1.13735248        4.53067858
 C            1.44119464        1.71563455        3.46112774
 C           -0.65233898       -0.81083543        4.50657013
 C           -0.65771244        0.60743245        4.18843772
 C           -1.24068620       -1.69478926        3.61392565
 C            0.89416855       -2.90006120        3.32642068
 C           -0.45154012       -2.77303773        3.02318349
 C            2.86842307       -1.87908576        2.60376226
 C            1.86119055       -2.86309826        2.24512833
 C            2.86722326        0.44358336        1.93706606
 C            3.18237687       -0.89852522        1.66762833
 C            2.45002022        1.27393609        0.88918717
 C            0.76626794        2.18687239        2.34444251
 C            1.43565837        2.21160778        1.12415665
 C           -1.23423348        1.04117500        2.99614718
 C           -0.62369036        2.10089892        2.32785092
 C           -2.10259638       -1.16685425        2.57118499
 C           -2.08530553        0.19138622        2.27714192
 C           -0.87255239       -2.91456912        1.64263757
 C           -2.06612528       -2.10627505        1.47431412
 C            1.44011061       -2.90836334        0.91405571
 C            0.07099985       -2.93916953        0.61059472
 C            3.20928742       -1.32121575        0.34572989
 C            2.32917463       -2.41575340       -0.03438442
 C            2.82393791        0.96594914       -0.41958434
 C            3.16922501       -0.34361218       -0.72023384
 C            2.41039212        1.78758031       -1.46162838
 C            0.82356020        2.86192253        0.05239640
 C            1.40896258        2.80462217       -1.20407804
 C           -1.29708990        2.67641717        1.26439852
 C           -0.51872548        3.20997437        0.16028797
 C           -2.56693648        0.61050703        1.03152857
 C           -2.40837031        1.94465532        0.68932140
 C           -2.35043356       -1.65004061        0.20173673
 C           -2.78050012       -0.33287652        0.01639353
 C           -0.37418765       -2.64456903       -0.68809050
 C           -1.71507574       -2.28573866       -0.85166548
 C            1.87903672       -2.17189908       -1.38779267
 C            2.55827612       -0.98817475       -1.87203975
 C            0.54190328       -2.33326523       -1.70296559
 C            2.09195031        1.18152490       -2.74437993
 C            1.91407886       -0.19809453       -2.81397331
 C            0.58295035        2.93562070       -2.40012850
 C            1.15209715        2.05856048       -3.41847205
 C           -1.36960577        3.17598373       -1.01561782
 C           -2.52069181        2.34488969       -0.69633957
 C           -0.80447936        3.07118374       -2.28270078
 C           -3.08004337        0.08023645       -1.29260509
 C           -2.96118666        1.43614209       -1.64715793
 C           -2.20528594       -2.04533045       -2.12177279
 C           -3.08866213       -0.90785430       -2.28439331
 C            0.07595563       -1.77263965       -2.89362718
 C            0.78757607       -0.70318717       -3.46876319
 C           -1.26156875       -1.98168178       -3.21211193
 C            0.32268239        1.52199904       -4.39069240
 C            0.21372442        0.07435258       -4.47717799
 C           -1.62498036        2.62713629       -3.31858177
 C           -2.77864832        1.80593008       -2.98014446
 C           -1.01642398        2.05705016       -4.50468393
 C           -3.05021241       -0.55219766       -3.69004137
 C           -1.89535070       -1.22505656       -4.27305274
 C           -1.11248558       -0.23685247       -4.97518902
 C           -2.97270545        0.84276197       -4.04303392
 C           -1.88112153        0.99612063       -4.99068183
