   70
C70 / DATE: 7/ 1/2024 / Origin: Program Fullerene / C70 from database
 C            1.32270573       -0.13163224        4.22551819
 C            2.59256026       -0.41076982        3.59289428
 C            2.49220869       -1.70568318        2.93663594
 C            0.46977900       -1.29418006        4.03491683
 C            1.12957563       -2.17009241        3.08531786
 C           -0.86442690       -0.81043931        3.71573464
 C            0.56935041        1.02706820        3.78661455
 C           -0.82844840        0.63826385        3.81898194
 C            1.04109251        1.79474546        2.71892246
 C            3.09625375        0.52728086        2.61192299
 C            2.38445235        1.69131389        2.32424378
 C            3.03378449       -1.56570541        1.59777258
 C            3.62754944       -0.24707165        1.50297641
 C            2.30405924       -2.03572692        0.51680298
 C            0.42428892       -2.55828950        1.95491299
 C            1.08146064       -2.68626982        0.72698423
 C           -1.55736130       -1.39487234        2.65568872
 C           -0.96232317       -2.45509628        1.97128175
 C           -2.60074817       -0.68659825        2.04960770
 C           -1.73645445        1.37100941        3.07794146
 C           -2.77598747        0.66210458        2.35556173
 C            0.12215959        2.47637820        1.90928029
 C           -1.23780122        2.40566528        2.18766981
 C            0.52683885        2.99556261        0.68452263
 C            2.83018057        2.43677001        1.23747752
 C            1.87858299        3.23136047        0.48687379
 C            3.70676889        0.37411601        0.26068638
 C            3.67323235        1.76812746        0.26083111
 C            2.61452572       -1.54844432       -0.74791863
 C            3.28832076       -0.32668561       -0.88162024
 C            2.01967283       -2.14056162       -1.85586488
 C            0.37277183       -3.19761784       -0.36535644
 C            0.85335363       -2.98532480       -1.65829398
 C           -1.67738548       -3.10292710        0.97964446
 C           -0.95735677       -3.57881577       -0.18875411
 C           -3.25752623       -1.23284937        0.94190102
 C           -2.92541437       -2.51963902        0.52628980
 C           -3.99150433       -0.40479779        0.08525201
 C           -3.25084772        1.56592017        1.32894954
 C           -2.18554403        2.53359594        1.09295420
 C           -3.94088359        1.04014371        0.25014373
 C           -0.34157564        2.93711522       -0.41300935
 C           -1.71097383        2.74384440       -0.20253728
 C            0.17244799        2.76061902       -1.70168610
 C            2.38791640        3.36042877       -0.86566066
 C            3.55071780        2.49384174       -0.98588045
 C            1.50045709        3.06187670       -1.96921681
 C            3.32928913        0.29490415       -2.13213296
 C            3.42026545        1.73988360       -2.21274671
 C            2.22231697        2.20701976       -2.89248167
 C            1.78987683       -1.35288675       -3.05525045
 C            2.38606337       -0.11009683       -3.15796691
 C            1.54020928        1.03959546       -3.42898678
 C           -0.07859531       -2.69485436       -2.74184163
 C            0.37939938       -1.47473489       -3.37258386
 C           -1.87026683       -3.52360001       -1.31672401
 C           -3.09566192       -2.88332491       -0.86885670
 C           -1.43652753       -2.86350926       -2.53212444
 C           -4.02786144       -0.68547855       -1.34564022
 C           -3.43330916       -1.84445248       -1.82063375
 C           -2.32880089       -1.73829185       -2.76738179
 C           -3.72611916        1.62598102       -1.05818802
 C           -2.51888216        2.40008848       -1.28644606
 C           -3.76434236        0.55724167       -2.04230069
 C           -0.51755394        1.95329431       -2.59930614
 C            0.16226484        0.92184505       -3.24778081
 C           -0.43198102       -0.34173317       -3.33662764
 C           -1.80148159       -0.48255614       -3.08880625
 C           -1.89589522        1.89129561       -2.49603328
 C           -2.56691200        0.65730857       -2.85707061
