   70
C70 / DATE: 7/ 1/2024 / Origin: Program Fullerene / C70 from database
 C            0.94123231        0.15152317        4.81734596
 C            2.19988715       -0.18935161        4.19686123
 C            2.14865514       -1.60359551        3.86752255
 C            0.10468458       -1.04145570        4.79887832
 C            0.75434724       -1.99885240        3.92908400
 C           -1.24186125       -0.62443356        4.48580356
 C            0.15615441        1.22577832        4.24778933
 C           -1.23167348        0.82451499        4.37813327
 C            0.56069370        1.84866240        3.06444838
 C            2.58974358        0.50856349        2.98971629
 C            1.72304247        1.42953099        2.39612713
 C            2.85759482       -1.78553214        2.61552960
 C            3.25430941       -0.46684815        2.14378457
 C            2.33530760       -2.68001691        1.69469949
 C            0.12968505       -2.42792142        2.75463003
 C            0.92436794       -3.03213770        1.78324197
 C           -1.86194307       -1.13027657        3.27989130
 C           -1.14566858       -1.95268594        2.40544883
 C           -2.15361857        1.19148632        3.31923297
 C           -2.64426384       -0.04065969        2.72289787
 C           -0.38930249        2.59762863        2.37603715
 C           -1.79621987        2.22939307        2.47572384
 C           -0.13763707        2.99835420        1.00700093
 C            1.90483169        1.72367516        1.03815678
 C            1.00157839        2.54865814        0.35825220
 C            3.29368866       -0.22639871        0.77610860
 C            2.88190315        1.02648973        0.32058790
 C            2.64666611       -2.48438353        0.29211446
 C            3.27564610       -1.31204626       -0.10705562
 C            0.42179629       -3.18373317        0.43248167
 C            1.51948220       -2.96309640       -0.48986373
 C           -1.60437675       -2.05932991        1.08545421
 C           -0.81915147       -2.67593665        0.10592587
 C           -2.92220383       -0.07675230        1.36207968
 C           -2.69245065       -1.27349503        0.69135775
 C           -2.34368944        2.25010180        1.13318575
 C           -1.40061212        2.95636829        0.29375853
 C           -2.95808928        1.11182810        0.62176999
 C           -1.38137760        2.65706180       -1.05899565
 C            1.03144549        2.60501573       -1.03552760
 C           -0.16843570        2.73655248       -1.74427493
 C            3.13820677        1.36969081       -1.00046401
 C            2.19236302        2.22007815       -1.69864685
 C            3.32783893       -1.05762127       -1.47152692
 C            3.52737011        0.30922782       -1.90707782
 C            1.26550449       -2.36531668       -1.72522792
 C            2.29781225       -1.64472703       -2.32013157
 C           -1.10261969       -2.44995257       -1.23520814
 C           -0.05752574       -2.10885846       -2.10772282
 C           -3.19045252       -1.39853709       -0.59792264
 C           -2.41336303       -2.14719495       -1.56375099
 C           -3.14469472        1.02673087       -0.76019754
 C           -2.42273824        1.89538516       -1.59436990
 C           -3.61042154       -0.18575759       -1.26535852
 C           -2.52781966        1.79089134       -2.98080721
 C           -0.16741552        2.60477745       -3.12963710
 C           -1.38609592        2.16818739       -3.79448965
 C            2.12552667        1.77281897       -3.08263511
 C            2.80155326        0.49027909       -3.14852081
 C            1.99907870       -0.70023586       -3.37992966
 C            0.92875658        1.90224770       -3.76782190
 C           -0.31522624       -1.34967067       -3.26125542
 C           -1.04135204        1.01864075       -4.62171552
 C            0.68596933       -0.53275624       -3.80129406
 C            0.34510128        0.70611025       -4.34629146
 C           -2.71891529       -1.62198890       -2.87687407
 C           -3.56481904       -0.45120745       -2.68919909
 C           -3.07834353        0.58551838       -3.57010422
 C           -1.62234708       -1.23347898       -3.73633683
 C           -2.03510001       -0.00552793       -4.39082668
