   70
C70 / DATE: 7/ 1/2024 / Origin: Program Fullerene / C70 from database
 C            1.48401352        0.24234195        5.05361073
 C            0.72018094       -0.96352310        4.81397785
 C            1.61676341       -1.90686045        4.18310623
 C            2.67481193        0.17588734        4.21722749
 C            2.76436804       -1.16359431        3.68461131
 C            2.60561138        1.28271037        3.28741009
 C            0.68979465        1.36150525        4.58529122
 C            1.55593497        2.17053997        3.76002961
 C           -0.50038140       -0.59831984        4.10634898
 C           -0.52683713        0.84809524        3.97610207
 C           -0.90995312       -1.37379473        3.02776874
 C            1.09917184       -2.66844651        3.07276653
 C           -0.25394479       -2.58533921        2.77707683
 C            2.80136515       -1.34278280        2.24168359
 C            2.02207008       -2.52539019        1.95997868
 C            2.71749623        1.05634440        1.91114042
 C            2.65482286       -0.24742244        1.40012701
 C            2.40995398        2.11510096        1.06281385
 C            0.94953214        2.97383681        2.81717866
 C            1.64497374        3.16710787        1.56895451
 C           -0.95519146        1.42585557        2.77782720
 C           -0.42383001        2.66630185        2.43345478
 C           -1.62930302       -0.76070036        1.99482465
 C           -1.48810784        0.61146922        1.77073709
 C           -2.20818415       -1.56161388        1.01435686
 C           -0.64934838       -3.30601854        1.66836184
 C           -1.85271927       -2.90498814        0.98163045
 C            1.49061057       -2.70704800        0.68674421
 C            0.34994500       -3.49528440        0.62951873
 C            2.19402148       -0.45751997        0.09577118
 C            1.63702160       -1.69302353       -0.27403706
 C            2.40444992        1.90779321       -0.31426318
 C            2.17445037        0.61075896       -0.79784981
 C            2.05962303        2.99980651       -1.10239358
 C            0.66702257        3.78080711        0.70276684
 C           -0.59888512        3.17245570        1.08201913
 C            0.97208389        3.84268626       -0.63871758
 C           -1.75988482        1.14011016        0.49842992
 C           -1.27635671        2.40325262        0.13905876
 C           -2.72623068       -0.98023450       -0.14541691
 C           -2.37193146        0.33854663       -0.47030552
 C           -3.24154968       -1.83092276       -1.12551572
 C           -1.78029143       -3.56971583       -0.29768730
 C           -0.36032634       -3.61005784       -0.61865216
 C           -2.64272287       -3.14826214       -1.28754982
 C            0.96625689       -1.81215804       -1.50692756
 C            0.09040303       -2.89053000       -1.71724225
 C            1.73929948        0.40488326       -2.11317365
 C            1.03066755       -0.76342396       -2.43935062
 C            1.86154658        2.81124213       -2.52047579
 C            1.80169101        1.45873602       -3.02517341
 C           -0.09722659        3.60879340       -1.57754167
 C           -1.11786239        2.72322609       -1.21296016
 C            0.58456389        3.43319369       -2.84017931
 C           -2.47464177        0.81128628       -1.79019665
 C           -1.72815725        1.92536442       -2.18423783
 C           -3.50846543       -1.31615820       -2.45101339
 C           -3.03462538        0.00875887       -2.78655163
 C           -2.14023641       -3.19741319       -2.64173006
 C           -0.72642643       -2.91137953       -2.84042190
 C           -2.91347946       -2.24235601       -3.40324539
 C            0.28857959       -0.82719913       -3.63535067
 C           -2.35093804       -0.09460939       -4.06894502
 C           -0.62687451       -1.85538448       -3.81940205
 C           -1.98080558       -1.48522857       -4.20768923
 C            0.85216765        1.50238150       -4.11176475
 C           -0.04642985        2.61514788       -3.83909667
 C           -1.32590972        2.02185845       -3.52078577
 C            0.01364866        0.34913972       -4.32548408
 C           -1.36085914        0.82937829       -4.33137789
