   70
C70 / DATE: 7/ 1/2024 / Origin: Program Fullerene / C70 from database
 C            1.33566154       -0.02370978        4.47752158
 C            2.64987717       -0.28884774        3.92350333
 C            2.65121353       -1.64437189        3.40464548
 C            0.51422749       -1.20139616        4.26338129
 C            1.31620355       -2.19491433        3.57514395
 C           -0.72702203       -0.77632572        3.64663090
 C            0.59677202        1.12857224        3.99329435
 C           -0.66982377        0.66224008        3.45280882
 C            1.27676187        2.12379009        3.31187242
 C            3.15357623        0.58561982        2.88021407
 C            2.58504337        1.83830963        2.72237494
 C            3.22431182       -1.61354287        2.06957747
 C            3.38526509       -0.21874450        1.69152912
 C            2.73679904       -2.50542610        1.13107369
 C            0.74394380       -2.88845672        2.51400779
 C            1.57134936       -3.30405697        1.47172648
 C           -1.26041344       -1.55027818        2.63068556
 C           -0.62365068       -2.74258038        2.26988059
 C           -2.11609433       -0.93553509        1.72273653
 C           -1.15791733        1.21034970        2.26097097
 C           -1.91678395        0.40915047        1.40200056
 C            0.54732077        2.91709637        2.34134337
 C           -0.64667711        2.42838192        1.80222108
 C            2.57534830        2.42429567        1.39727048
 C            1.54991129        3.44336013        1.43881261
 C            2.91499015        0.23320882        0.45256904
 C            2.64648512        1.59261159        0.27653916
 C            2.54415965       -2.05189151       -0.23278308
 C            2.48412805       -0.68524924       -0.50663144
 C            0.97741011       -3.74170157        0.22109888
 C            1.56696809       -2.93960210       -0.84005088
 C           -1.20974245       -3.53595071        1.28855822
 C           -0.38340809       -4.00031967        0.18418250
 C           -2.88535285       -1.73788604        0.89571059
 C           -2.48962771       -3.12364826        0.73811670
 C           -3.28630145       -1.23824585       -0.40477563
 C           -2.28027674        0.89144904        0.14046188
 C           -2.93875100        0.05811329       -0.77645618
 C           -1.07989124        2.94982178        0.57899438
 C           -1.96056961        2.20298576       -0.21778010
 C            1.11489571        3.95407815        0.23835749
 C           -0.31086411        3.96717554        0.00397954
 C            2.09822496        2.05013295       -0.92652024
 C            1.66830044        3.37716035       -0.96900044
 C            1.74199985       -0.24705112       -1.60547058
 C            1.59400273        1.12440739       -1.85395336
 C            0.75312518       -2.43855158       -1.84597013
 C            1.05290236       -1.18435119       -2.37924741
 C           -1.10997461       -3.74199991       -1.04561677
 C           -2.47622650       -3.41914382       -0.68105149
 C           -3.12229670       -2.31765229       -1.36852362
 C           -0.50819707       -3.00658090       -2.06446832
 C           -2.66743575       -1.99412275       -2.63691152
 C           -1.33882841       -2.44886114       -3.03352243
 C           -2.95419289        0.39140422       -2.13356642
 C           -2.78920732       -0.61994216       -3.08034716
 C           -2.33183724        2.66550552       -1.48140276
 C           -2.67499219        1.70130884       -2.51030728
 C           -0.44198731        4.27073399       -1.40368458
 C            0.79479950        3.81614313       -2.03370598
 C           -1.54272777        3.69069891       -2.13156528
 C            0.89277376        1.56204939       -2.99375172
 C           -1.78452004        1.93473610       -3.64573876
 C            0.42883738        2.87455750       -3.06148904
 C           -0.98018036        3.09193628       -3.32598590
 C            0.43526447       -0.78771088       -3.55271011
 C           -0.78935202       -1.45670764       -3.93858008
 C           -1.80206493       -0.43510433       -4.12427250
 C            0.26451149        0.62607508       -3.81581346
 C           -1.13017626        0.84300134       -4.19214115
