   70
C70 / DATE: 7/ 1/2024 / Origin: Program Fullerene / C70 from database
 C            1.10357649        0.24013417        4.81371469
 C            2.40799030        0.04630604        4.21778316
 C            2.50906280       -1.35974316        3.88647342
 C            0.31029054       -0.95179468        4.52855447
 C            1.15647578       -1.88169529        3.81803105
 C           -0.91940148       -0.52217705        3.90375639
 C            0.32753619        1.38603261        4.39476500
 C           -1.00978034        0.90734862        4.10359100
 C            0.76131169        2.14338593        3.23215909
 C            2.75363100        0.79157685        3.01720338
 C            1.84449534        1.69707403        2.47327770
 C            3.32934790       -1.46699599        2.69905420
 C            3.45078332       -0.12465316        2.13325832
 C            3.05462312       -2.51340401        1.83527296
 C            0.72440359       -2.43055596        2.61187966
 C            1.69041539       -3.03224832        1.80861953
 C           -1.27395154       -1.02963970        2.65647840
 C           -0.48269718       -2.00185052        2.03114430
 C           -2.18973086       -0.31121387        1.88771327
 C           -1.51462223        1.70242253        3.00719345
 C           -0.44711015        2.56799752        2.54566233
 C           -2.26939621        1.08025994        2.03181352
 C           -0.38225025        2.83852341        1.18107650
 C            1.83745969        1.92194805        1.09641992
 C            0.85937981        2.76051431        0.55632635
 C            3.34293195        0.04596706        0.75275673
 C            2.60635341        1.11798224        0.24337517
 C            3.48895213       -2.37743936        0.46274746
 C            3.61368612       -1.03863455       -0.07911961
 C            1.37189737       -3.37276153        0.43886471
 C            2.54355824       -3.09640239       -0.36742996
 C           -0.82008729       -2.41089380        0.73264667
 C            0.13742906       -3.02310227       -0.08262656
 C           -2.70393906       -0.89213059        0.72743547
 C           -2.01534496       -1.96426190        0.14992291
 C           -3.59177191       -0.13424230       -0.04122946
 C           -2.55012956        1.82771880        0.90263859
 C           -1.53636788        2.66023317        0.40551173
 C           -3.50611483        1.31008821        0.04982851
 C           -1.49142718        2.99243923       -0.95588306
 C            0.95195615        3.13093575       -0.77698643
 C           -0.27401320        3.36895838       -1.51870583
 C            2.43956951        1.23316236       -1.13792056
 C            1.85009972        2.38733652       -1.64006419
 C            3.05544761       -1.06567117       -1.42036677
 C            2.36003315       -2.33054030       -1.58575556
 C            2.45365773        0.07919450       -1.92528314
 C            0.03331238       -2.88166122       -1.46221650
 C            1.09637525       -2.29918966       -2.16071454
 C           -2.31769112       -2.36757837       -1.15467373
 C           -1.23828021       -2.82956343       -2.00827546
 C           -3.84674072       -0.47450804       -1.42869543
 C           -3.22500035       -1.58305305       -1.97688677
 C           -3.64302570        1.86425159       -1.27476341
 C           -2.54807839        2.64883390       -1.80026628
 C           -3.89731536        0.76583188       -2.19077721
 C           -2.27020677        2.16504516       -3.14595268
 C           -3.02579320        0.93681963       -3.34199203
 C           -0.00812058        3.05512952       -2.91158523
 C            1.26635839        2.35949578       -2.96944704
 C           -0.98071652        2.27070291       -3.65100483
 C            1.50982473       -0.06612924       -2.94530420
 C            0.82349925       -1.27856406       -3.06982955
 C            1.03939067        1.07170236       -3.59272430
 C           -0.30267941        1.08251911       -4.14913711
 C           -1.40609976       -2.22464196       -3.31614722
 C           -2.65595355       -1.48803549       -3.31241401
 C           -2.40349858       -0.17758372       -3.89175195
 C           -0.36257018       -1.33973881       -3.79500921
 C           -0.99520926       -0.11557316       -4.25601024
