   70
C70 / DATE: 7/ 1/2024 / Origin: Program Fullerene / C70 from database
 C            1.38127697       -0.09430560        4.02467313
 C            2.48601612       -0.17293297        3.08683447
 C            2.37501811       -1.43766040        2.37095686
 C            0.51325614       -1.23450117        3.78134497
 C            1.09192799       -2.01836440        2.70300984
 C           -0.84237250       -0.73899698        3.62449062
 C            0.55709620        1.09801894        4.04674116
 C           -0.83208057        0.67867135        3.93781354
 C            0.99172857        2.22841698        3.36777440
 C            2.89500124        0.96477237        2.39158662
 C            2.18386703        2.16072336        2.53191448
 C            3.67588388        0.78581029        1.25213708
 C            2.83982418       -1.50361283        1.06189106
 C            3.77461008       -0.54668952        0.68236414
 C            2.07201807       -2.15487779        0.07990383
 C            0.26703014       -2.44103113        1.67393842
 C            0.81134059       -2.68096672        0.41215084
 C           -1.59546090       -1.19817456        2.54815927
 C           -1.10867060       -2.26967159        1.80269071
 C           -2.61764162       -0.40314425        2.01984628
 C           -1.75790191        1.50741474        3.32016526
 C           -2.75030081        0.92097222        2.43541242
 C            0.02576446        3.09129424        2.70416200
 C           -1.32550931        2.76387872        2.72605076
 C            1.94928256        2.98912102        1.35827617
 C            0.63287527        3.58751166        1.47837480
 C            3.51753787        1.70593901        0.13725222
 C            2.41156605        2.54586308        0.12395910
 C            4.11643314       -0.39332692       -0.71232323
 C            3.89460226        1.00134633       -1.06899151
 C            2.51122213       -2.16669513       -1.25369461
 C            3.41872753       -1.20125288       -1.68507400
 C            1.73395151       -2.78009944       -2.23056680
 C            0.00987904       -3.28664970       -0.56032242
 C            0.45432387       -3.36044388       -1.87667301
 C           -1.94109230       -2.86566778        0.87274110
 C           -1.34562733       -3.48484507       -0.29743340
 C           -3.30369849       -0.83405950        0.88093210
 C           -3.12597454       -2.14438105        0.44535233
 C           -3.82754854        0.10959883       -0.00629417
 C           -3.12692999        1.93379690        1.46671620
 C           -2.14974379        3.00783267        1.55175324
 C           -3.59893330        1.52604800        0.22748990
 C           -0.13957726        3.75643937        0.33928182
 C           -1.57215892        3.51177424        0.39080794
 C            1.55034326        2.54512752       -0.98431639
 C            0.35576513        3.25896848       -0.93336834
 C            2.97894432        1.01584694       -2.18807468
 C            3.02951999       -0.31141501       -2.76645736
 C            1.74446499        1.63753613       -2.03298438
 C            1.56585933       -2.09374127       -3.50161865
 C            1.99586691       -0.71210343       -3.59405468
 C           -0.47711232       -3.09234125       -2.96952781
 C            0.16108459       -2.13890675       -3.85153155
 C           -2.29760513       -3.36042374       -1.38528539
 C           -3.35703609       -2.46529763       -0.95237835
 C           -1.81455161       -2.89290323       -2.66760115
 C           -3.70924098       -0.10430099       -1.44066425
 C           -3.44781215       -1.38065819       -1.91179431
 C           -2.38490269       -1.56911185       -2.88751630
 C           -3.01778784        2.07890456       -0.98884818
 C           -1.97924364        2.99327579       -0.90517702
 C           -0.78062795        2.77375556       -1.69552347
 C           -2.93456394        1.00428728       -1.96345432
 C            0.64539236        1.17552146       -2.76668731
 C            0.79301509        0.10690928       -3.64608852
 C           -0.33902557       -0.77563711       -3.86506812
 C           -1.54417859       -0.50207739       -3.22296008
 C           -0.63819240        1.60324358       -2.43402015
 C           -1.72921341        0.74264823       -2.61257517
