   70
C70 / DATE: 7/ 1/2024 / Origin: Program Fullerene / C70 from database
 C            1.17946129       -0.07493537        4.65005990
 C            2.41976503       -0.43978391        4.00786058
 C            2.25798477       -1.78507685        3.46951693
 C            0.32255593       -1.24762938        4.61912926
 C            0.86306492       -2.13788233        3.60801830
 C           -1.03579822       -0.77554936        4.46453965
 C            0.41243664        1.02227268        4.09579984
 C           -0.98251873        0.66403224        4.24761229
 C            0.81467982        1.61306278        2.90014962
 C            2.90796470        0.38523630        2.92157961
 C            2.10711149        1.40026207        2.39443285
 C            2.84531760       -1.78509664        2.14682775
 C            3.55302730       -0.52657305        2.00308808
 C            2.10675937       -2.25154654        1.06432625
 C            0.11119919       -2.40393162        2.46333428
 C            0.75432725       -2.59535821        1.22811333
 C           -1.83755664       -1.33054161        3.39535380
 C           -1.28001600       -2.25277965        2.51260343
 C           -1.90039108        0.97697515        3.16420181
 C           -2.61781297       -0.23997034        2.84255048
 C           -0.14680290        2.23461725        2.10144351
 C           -1.46702258        1.77615426        2.11260978
 C            0.27575616        3.04479571        1.06058932
 C            2.44944971        1.92737552        1.14426704
 C            1.62367823        2.87733002        0.55368453
 C            3.81969421       -0.07522171        0.72329915
 C            3.38629833        1.26304649        0.35381625
 C            2.60015928       -1.99124101       -0.21370277
 C            3.49488751       -0.94069837       -0.39690360
 C            1.93249448       -2.49791334       -1.31649318
 C            0.01211058       -3.02213138        0.12050276
 C            0.60129132       -3.04337052       -1.14044666
 C           -2.03600283       -2.57931439        1.39625981
 C           -1.37522960       -3.04790683        0.19504595
 C           -3.11739702       -0.38666670        1.55592605
 C           -3.08381716       -1.65852112        0.98639976
 C           -2.19443919        1.75186974        0.91972468
 C           -3.12556271        0.72127004        0.70948443
 C           -0.60648884        3.26576760       -0.06981782
 C           -1.83661384        2.62284917       -0.11823194
 C            1.57565495        2.99633683       -0.89813674
 C            0.20759885        3.32251087       -1.27340959
 C            3.25001090        1.28331341       -1.09476030
 C            3.36153732       -0.09002619       -1.56597889
 C            2.32305110        2.13129109       -1.69378963
 C            1.95619145       -1.75929429       -2.57225003
 C            2.56596149       -0.50310002       -2.62828159
 C           -0.19218357       -2.66693467       -2.30191930
 C            0.68466612       -1.99583853       -3.24361755
 C           -2.15885144       -2.59982457       -0.94959704
 C           -3.26881882       -1.80760586       -0.44756994
 C           -1.49781716       -2.21928537       -2.11606753
 C           -3.74337842        0.58175436       -0.52766859
 C           -3.70157943       -0.71585503       -1.18060422
 C           -2.48349577        2.55727645       -1.34677233
 C           -3.54015267        1.59134229       -1.54194759
 C           -0.31304367        2.84119597       -2.47202286
 C           -1.68758698        2.60368247       -2.56512415
 C            1.86992154        1.82221416       -2.97367959
 C            2.06321232        0.47251488       -3.48368402
 C            0.55490771        2.27363646       -3.40269106
 C            0.16125273       -1.02928206       -4.08548657
 C            0.94572707        0.15944493       -4.35421889
 C            0.04846581        1.30218258       -4.35609762
 C           -2.00379850       -1.17557314       -2.90314069
 C           -3.16505300       -0.50900545       -2.51164434
 C           -3.29490505        0.90770126       -2.80095578
 C           -2.19921732        1.57988278       -3.47042400
 C           -1.22373391       -0.62139129       -3.92162474
 C           -1.30254846        0.80945891       -4.19338990
