   70
C70 / DATE: 7/ 1/2024 / Origin: Program Fullerene / C70 from database
 C            1.52902259       -0.02489166        4.68416491
 C            0.75753346       -1.22496301        4.41992571
 C            1.35759739       -1.91144461        3.28934549
 C            2.64333004       -0.00607719        3.75641117
 C            2.58567707       -1.20861841        2.95355590
 C            2.62122452        1.26248824        3.06002207
 C            0.68082987        1.11322533        4.37378665
 C            1.33651661        1.88818080        3.34480095
 C           -0.62980107       -0.83024867        4.31322676
 C           -0.64723053        0.61049543        4.10829981
 C           -1.45468603       -1.60026689        3.51050434
 C            0.52606862       -2.36536469        2.26090409
 C           -0.84234145       -2.46139648        2.50238263
 C            0.99669258       -2.34175416        0.94320519
 C            2.93469467       -1.10830680        1.61798861
 C            2.32237736       -1.97436873        0.71980385
 C            3.08638676        1.29857248        1.74979660
 C            3.46292780        0.09610023        1.14048997
 C            2.63546440        2.34153721        0.94672396
 C            0.58987428        2.38293847        2.27837560
 C            1.30212976        2.86805418        1.18526046
 C           -1.36343739        1.11372366        3.02622708
 C           -0.73765561        1.96300084        2.09601458
 C           -2.57323808       -0.94807648        2.86107928
 C           -2.51679054        0.42970791        2.64724349
 C           -1.76277232       -2.53994890        1.38104213
 C           -2.96273713       -1.81928539        1.76812489
 C            0.10047964       -2.38868244       -0.13697593
 C           -1.27624734       -2.40137690        0.08521027
 C            0.58108878       -2.31205879       -1.44610998
 C            2.85576593       -2.08255793       -0.55339210
 C            1.95920276       -2.31412556       -1.67029362
 C            3.94011691        0.12524857       -0.16655247
 C            3.82736428       -1.08552959       -0.96233238
 C            2.84984236        2.29224070       -0.48859517
 C            3.58670342        1.24855641       -1.02247284
 C            0.64570407        3.00998455       -0.10117935
 C            1.61058720        2.68637570       -1.13673451
 C           -1.39986303        2.27497913        0.90192387
 C           -0.66496710        2.57908172       -0.24179854
 C           -3.32724736        0.98368312        1.66715506
 C           -2.74644653        1.96742350        0.77169093
 C           -3.77667501       -1.30281092        0.77666776
 C           -4.15651578        0.09565934        0.87246237
 C           -2.14683039       -2.01120143       -0.93536016
 C           -3.42944557       -1.55405454       -0.61109651
 C           -0.28963929       -1.97838541       -2.48968310
 C           -1.65618146       -1.79901283       -2.22731343
 C            0.24817705       -1.58809594       -3.71990990
 C            2.50401286       -1.61025662       -2.82182810
 C            3.51871891       -0.69946365       -2.32399606
 C            3.21930041        0.72086970       -2.32447280
 C            1.61791864       -1.12469825       -3.76613017
 C            1.17256970        2.00386090       -2.26532158
 C            2.04507405        1.14041489       -2.94583120
 C            1.53817140        0.31809464       -3.94976753
 C           -1.12140432        2.16623431       -1.49854890
 C           -0.19785047        1.97762317       -2.54050670
 C           -3.30095723        1.75494247       -0.55479410
 C           -4.21747786        0.62963344       -0.47349584
 C           -4.01829399       -0.47747040       -1.38961084
 C           -2.47550877        1.84278438       -1.67333543
 C           -2.46352440       -1.10717790       -3.13615930
 C           -3.45336537       -0.19044301       -2.61665442
 C           -2.87069161        1.12870466       -2.80267731
 C           -0.48289772       -0.66707379       -4.56305021
 C            0.22857591        0.60064273       -4.50043550
 C           -0.62343026        1.52266163       -3.78371454
 C           -1.86203618       -0.39832440       -4.24500276
 C           -1.96953487        1.02008789       -3.92868312
