   70
C70 / DATE: 7/ 1/2024 / Origin: Program Fullerene / C70 from database
 C            1.16550774       -0.12302266        4.38437165
 C            2.41475609       -0.36664551        3.70408897
 C            2.38206874       -1.73319311        3.21014051
 C            0.33679801       -1.31081537        4.22398188
 C            1.01252992       -2.18829792        3.29557239
 C           -0.99964382       -0.86025269        3.90217741
 C            0.36050425        1.01063857        3.97656983
 C           -1.01596805        0.58078476        4.10009507
 C            0.72463159        1.77036124        2.86391229
 C            2.77265836        0.48259150        2.58710653
 C            1.90161551        1.47562948        2.15264068
 C            3.01437576       -1.73812357        1.90646334
 C            3.39417378       -0.36726306        1.59281638
 C            2.46150772       -2.51021622        0.88990446
 C            0.37606390       -2.55667243        2.11658691
 C            1.15688316       -2.99989503        1.04623221
 C           -1.65922230       -1.39474221        2.79739671
 C           -0.96701205       -2.21548702        1.89577280
 C           -2.83023118       -0.76772660        2.38060482
 C           -1.99656598        1.32148456        3.46164104
 C           -3.07035435        0.60283073        2.79972698
 C           -0.23802986        2.61209246        2.29394685
 C           -1.59068125        2.40580210        2.57876632
 C            0.08838421        3.36207234        1.16808452
 C            2.08485618        1.99405184        0.87288799
 C            1.34343178        3.10458727        0.49226950
 C            3.37532406        0.03196944        0.25901903
 C            2.81998058        1.27158107       -0.07788714
 C            2.95583474       -2.29033279       -0.39092328
 C            3.45511990       -0.96460495       -0.71365492
 C            2.23791558       -2.79456080       -1.54627289
 C            0.52041076       -3.62919083       -0.01821709
 C            1.10709578       -3.56913783       -1.34745219
 C           -1.56264173       -2.55403403        0.67723770
 C           -0.91465642       -3.46106641       -0.15632880
 C           -3.25182286       -0.88188744        0.99626097
 C           -2.55929896       -1.73172970        0.14635727
 C           -3.46679983        1.36602219        1.62980749
 C           -2.55957665        2.48507998        1.49488359
 C           -3.58763069        0.44845660        0.51838988
 C           -0.92356175        3.55735050        0.14249951
 C           -2.10971248        2.83468816        0.22758006
 C            1.16503775        3.41568836       -0.91543169
 C           -0.24618731        3.69464238       -1.13562829
 C            2.78995676        1.65410151       -1.41910201
 C            1.88645438        2.70291921       -1.86046151
 C            3.09123511       -0.67388787       -2.09039322
 C            2.21938080       -1.74064459       -2.55298613
 C            2.81034116        0.63176875       -2.45076930
 C            1.03179133       -1.43213699       -3.21848229
 C            0.02581192       -3.48427976       -2.30961907
 C           -1.22810283       -3.46689215       -1.57321454
 C            0.00046383       -2.37084894       -3.24293595
 C           -2.57541024       -1.45952758       -1.22333120
 C           -2.03336719       -2.38624170       -2.10764959
 C           -1.37521868       -1.91492747       -3.31391742
 C           -3.11133365        0.83776704       -0.72642807
 C           -2.55437477        2.11503229       -0.88816271
 C           -2.83839818       -0.15906414       -1.66288311
 C           -0.87418035        3.23266337       -2.28452965
 C           -2.13171762        2.51615653       -2.15383045
 C            1.23524965        2.24636634       -3.07942281
 C            1.69912920        0.89249084       -3.34791812
 C            0.77847296       -0.11859893       -3.62931308
 C           -0.09260307        2.57565583       -3.32109895
 C           -1.62297305       -0.62244017       -3.74166995
 C           -2.54191039        0.19830513       -2.97376844
 C           -2.22188922        1.58229266       -3.26078351
 C           -0.49464859        0.22438764       -4.08327546
 C           -0.95002762        1.60007583       -3.96805076
