   70
C70 / DATE: 7/ 1/2024 / Origin: Program Fullerene / C70 from database
 C            1.29861055       -0.06597182        4.34797603
 C            2.59201986       -0.38771147        3.79076972
 C            2.55770524       -1.77545235        3.36173513
 C            0.45573621       -1.24875744        4.23157651
 C            1.17920277       -2.22726758        3.44971985
 C           -0.84236698       -0.80768917        3.76237053
 C            0.55413904        1.04159889        3.78120134
 C           -0.83783755        0.64264105        3.82851886
 C            1.03127247        1.69280037        2.64041147
 C            3.07833666        0.39698195        2.67637927
 C            2.35925862        1.50203891        2.22418147
 C            3.24104355       -1.86448014        2.08064046
 C            3.63215619       -0.51939295        1.69250115
 C            2.72687574       -2.71477545        1.11773161
 C            0.58090981       -2.76929307        2.31745618
 C            1.40472874       -3.28625301        1.31872612
 C           -1.41901675       -1.42530537        2.65338927
 C           -0.76298894       -2.49606880        2.03265811
 C           -2.46236166       -0.76660622        1.99252352
 C           -1.74281009        1.32981621        3.04372779
 C           -2.73010031        0.56529230        2.30968297
 C            0.11641309        2.35814294        1.80991905
 C           -1.24032591        2.33347094        2.12098129
 C            0.51578097        2.83824963        0.56364507
 C            2.78506921        2.07083774        1.03062567
 C            1.87076160        2.88904639        0.26464071
 C            3.61070673       -0.13575669        0.35118071
 C            3.50728281        1.22994845        0.08729701
 C            2.82777445       -2.34085252       -0.27999784
 C            3.26054106       -1.06594307       -0.63951266
 C            0.85532434       -3.58639848        0.00975153
 C            1.68942315       -2.92108439       -0.97787683
 C           -1.35519454       -3.10881392        0.93280882
 C           -0.51637526       -3.58198769       -0.15752236
 C           -3.04936915       -1.33081584        0.85644336
 C           -2.54354829       -2.52120464        0.34074140
 C           -3.89900072       -0.55737981        0.06373509
 C           -3.23968372        1.44949189        1.28288238
 C           -2.21355346        2.45274264        1.04729877
 C           -3.88736094        0.89040795        0.19832662
 C           -0.42628849        3.03313092       -0.45366883
 C           -1.76574738        2.68000050       -0.25051202
 C            0.00941221        3.39398014       -1.72613427
 C            2.30421143        2.83850999       -1.12089797
 C            3.20549250        1.70253870       -1.25114208
 C            1.37586036        3.09960191       -2.11713046
 C            2.98600078       -0.63624650       -1.93737500
 C            3.00802948        0.77791402       -2.26399380
 C            1.10671280       -2.20840109       -2.02516993
 C            1.87913296       -1.24562515       -2.66176573
 C           -1.06348644       -3.04215544       -1.38574648
 C           -2.44111000       -2.69832379       -1.10283334
 C           -0.28578874       -2.18556588       -2.16453181
 C           -4.01434940       -0.85927185       -1.35309138
 C           -3.08720103       -1.80666468       -1.94042414
 C           -3.65355114        1.44762195       -1.12105484
 C           -2.57480214        2.30442667       -1.33310283
 C           -3.89904815        0.38987071       -2.08557408
 C           -0.82955203        3.09654147       -2.86527526
 C           -2.09303583        2.42776196       -2.63421332
 C            1.31307324        2.23381833       -3.28526736
 C            1.98744699        1.01946266       -3.27086483
 C            1.23611159       -0.21601931       -3.45135379
 C           -0.05386331        2.26339715       -3.77212380
 C           -0.91009573       -1.18769360       -2.92730583
 C           -2.30545859       -1.09707180       -2.94120887
 C           -2.93709389        0.19533235       -3.15545477
 C           -2.13736915        1.26819523       -3.51396203
 C           -0.15211474       -0.17663832       -3.52771124
 C           -0.77070679        1.00932641       -3.92035509
