   70
C70 / DATE: 7/ 1/2024 / Origin: Program Fullerene / C70 from database
 C            1.26665973       -0.02422548        4.21488196
 C            2.54141128       -0.34720791        3.61986319
 C            2.44736560       -1.69814859        3.08212946
 C            0.43099073       -1.20899175        4.11856325
 C            1.06504269       -2.10913750        3.18173145
 C           -0.91292037       -0.76400289        3.82134308
 C            0.50570660        1.08043405        3.66728586
 C           -0.88634822        0.68647971        3.69055881
 C            0.97245443        1.76561570        2.55511684
 C            3.04540170        0.49627623        2.55511262
 C            2.25988690        1.53021222        2.04308833
 C            3.07131920       -1.68407437        1.77640027
 C            3.71311496       -0.39093869        1.62634575
 C            2.39396276       -2.21658953        0.68407445
 C            0.37226394       -2.44531059        2.02394168
 C            1.06659678       -2.65339191        0.82240172
 C           -1.67456878       -1.48029357        2.90580437
 C           -1.02235502       -2.34553722        2.01456351
 C           -2.87595244       -0.89186858        2.52507262
 C           -1.78206863        1.27310912        2.79712914
 C           -2.95085286        0.55920930        2.54564047
 C            0.06360775        2.51791194        1.81914418
 C           -1.30133884        2.17506538        1.82811605
 C            0.56607783        3.40745118        0.88183411
 C            2.62769688        2.09507928        0.81620715
 C            1.84362718        3.10654412        0.26833710
 C            3.96118144        0.06894042        0.34455458
 C            3.48329210        1.39086415       -0.03351698
 C            2.89844751       -1.94696993       -0.58605018
 C            3.69463627       -0.81647758       -0.77674113
 C            2.31301630       -2.55297615       -1.68734482
 C            0.38250442       -3.15579687       -0.29222627
 C            0.99522165       -3.14017247       -1.54291542
 C           -1.72428530       -2.89949581        0.95152132
 C           -1.00344448       -3.27702529       -0.24979802
 C           -3.58341103       -1.36068118        1.34678327
 C           -2.99278361       -2.32127030        0.54344505
 C           -3.82588660        0.97350794        1.47637824
 C           -4.20841183       -0.21045491        0.72264032
 C           -2.15587615        2.63291708        0.80439950
 C           -3.34095362        1.95876717        0.54104324
 C           -0.30443036        3.92191279       -0.14832523
 C           -1.64335955        3.39172066       -0.23928786
 C            1.64817307        3.13726781       -1.17396377
 C            0.34788630        3.71051375       -1.43098013
 C            3.19402926        1.36218923       -1.46040990
 C            3.48168042        0.02420076       -1.94436450
 C            2.08188386        2.05412524       -1.92951790
 C            2.36460375       -1.87689225       -2.97298727
 C            2.75564301       -0.47977201       -3.00987247
 C            0.20768703       -2.76478090       -2.70914096
 C            1.05952767       -1.99374366       -3.59591182
 C           -1.78500146       -2.84058396       -1.39809617
 C           -2.94945241       -2.12666511       -0.89956548
 C           -1.11903299       -2.38309159       -2.52995462
 C           -3.95362277        0.05520989       -0.68191182
 C           -3.56798843        1.45283168       -0.80367999
 C           -3.30220032       -0.89790455       -1.45757937
 C           -1.85234564        2.92730352       -1.60281732
 C           -0.56708386        2.98494186       -2.28220098
 C           -2.70000509        1.84002429       -1.82429479
 C            1.21070186        1.43544471       -2.84081873
 C            1.62453225        0.28274930       -3.51269995
 C            0.63271974       -0.66723618       -3.99243482
 C           -0.11948203        1.86452918       -2.97012202
 C           -1.61783089       -1.27415287       -3.21637228
 C           -2.69843667       -0.48765146       -2.63937273
 C           -2.37923288        0.92164895       -2.82469031
 C           -0.70904167       -0.34697961       -3.88013559
 C           -1.08055001        0.99549457       -3.47535135
