   70
C70 / DATE: 7/ 1/2024 / Origin: Program Fullerene / C70 from database
 C            1.34106296       -0.04347111        4.28557557
 C            2.57715526       -0.39822223        3.62776844
 C            2.50983382       -1.80894257        3.28036200
 C            0.52177120       -1.24108636        4.36732062
 C            1.16320008       -2.26976080        3.56747729
 C           -0.84446595       -0.86625819        4.05541086
 C            0.52428720        1.00374191        3.70684920
 C           -0.85318432        0.54880174        3.71667454
 C            0.97309482        1.71860827        2.59960084
 C            2.95736385        0.32634109        2.43313086
 C            2.20443912        1.41323201        1.99407583
 C            3.02943418       -1.96133419        1.93366902
 C            3.38984008       -0.64105554        1.44538413
 C            2.39750190       -2.84205856        1.07254538
 C            0.43268524       -2.90950183        2.56672711
 C            1.08875147       -3.37410855        1.42761877
 C           -1.61196154       -1.73590790        3.29881827
 C           -0.95786193       -2.81075555        2.56381652
 C           -2.65040045       -1.18999030        2.44701615
 C           -1.70767209        1.01155575        2.71798134
 C           -2.73746540        0.18320067        2.25159836
 C            0.03694985        2.47267008        1.89315012
 C           -1.31712441        2.12657662        1.96749612
 C            0.48741317        3.31095036        0.87873436
 C            2.45933684        1.89080624        0.70654133
 C            1.77181398        3.01938262        0.27351544
 C            3.20099914       -0.31870989        0.10555395
 C            3.04509612        1.02638403       -0.22716967
 C            2.38221233       -2.54661926       -0.34826645
 C            2.77429638       -1.29455591       -0.80386438
 C            0.34615543       -3.57673406        0.19248762
 C            1.19067997       -3.14300786       -0.91265228
 C           -1.69982480       -3.02126766        1.32859364
 C           -2.80193464       -2.07017480        1.30064835
 C           -1.02205128       -3.32135786        0.15177281
 C           -3.22076489       -1.53277048        0.08482324
 C           -3.55585720        0.62521239        1.21891607
 C           -3.74949979       -0.24019817        0.06432792
 C           -2.23335862        2.72583448        1.10851885
 C           -3.42036799        1.98566335        0.73958794
 C           -0.41962097        3.73072691       -0.17760193
 C           -1.75960054        3.39700026       -0.08768722
 C            1.67315945        3.31321518       -1.14500918
 C            0.26853068        3.54241792       -1.44251687
 C            3.09950556        1.37498411       -1.57242616
 C            2.43501657        2.58013110       -2.04019652
 C            2.38864942       -0.90013662       -2.08591247
 C            2.85608058        0.32967847       -2.54693561
 C            0.60421812       -2.54381517       -2.02031237
 C            1.28085089       -1.51984254       -2.69260072
 C           -1.61290776       -3.00401198       -1.06652992
 C           -2.74873021       -2.09303610       -1.10068672
 C           -0.76713442       -2.70101051       -2.21033369
 C           -2.60495583       -1.25507233       -2.28112334
 C           -1.49332363       -1.77249146       -3.06069554
 C           -3.59708670        0.57841605       -1.12968249
 C           -3.49226417        1.95979207       -0.71328316
 C           -2.39468360        2.75339886       -1.22520535
 C           -2.79081612        0.11844372       -2.16177483
 C           -0.34105496        2.81480721       -2.46391370
 C           -1.59546507        2.23629210       -2.24187513
 C           -1.91440465        0.99420796       -2.81428871
 C            1.87812747        2.29499588       -3.35237973
 C            2.27528594        0.94676327       -3.72067335
 C            0.44008970        2.39467793       -3.53489383
 C            0.66966443       -0.95101929       -3.81197732
 C           -0.77804986       -0.90343614       -3.86604826
 C           -1.14467943        0.50136036       -3.86542794
 C            1.14151415        0.30975446       -4.34708086
 C            0.02250587        1.24169633       -4.30306313
