   70
C70 / DATE: 7/ 1/2024 / Origin: Program Fullerene / C70 from database
 C            1.32088688       -0.10375434        4.26305934
 C            2.58316964       -0.38342884        3.62329216
 C            2.51783976       -1.73534448        3.08847169
 C            0.47379268       -1.27786768        4.10591584
 C            1.13992408       -2.17395327        3.18844042
 C           -0.85413901       -0.80758832        3.76924420
 C            0.54986720        1.03588141        3.81137373
 C           -0.83900119        0.63719948        3.91043479
 C            0.95903002        1.76872400        2.69482695
 C            3.02024500        0.47730880        2.54456221
 C            2.18532072        1.48897115        2.06414888
 C            3.14321251       -1.71285386        1.77621772
 C            3.69447469       -0.38198133        1.59152390
 C            2.49317628       -2.32113698        0.70491050
 C            0.48598772       -2.55567588        2.02500129
 C            1.24829495       -2.92421905        0.92146302
 C           -1.52620221       -1.36107341        2.68236240
 C           -0.88366294       -2.30577078        1.86593332
 C           -2.65694739       -0.69849439        2.20901414
 C           -1.78276411        1.37066379        3.21383805
 C           -2.82052589        0.65914010        2.48860863
 C            0.02424457        2.60168096        2.06992731
 C           -1.33352359        2.45424605        2.35414039
 C            0.38554351        3.31726499        0.93601627
 C            2.47209338        2.04571082        0.81418237
 C            1.65688365        3.04281760        0.29870965
 C            3.87267784        0.08458675        0.30069353
 C            3.35704222        1.39792730       -0.04509806
 C            2.88726787       -1.98643630       -0.59495887
 C            3.57728467       -0.79906753       -0.81541569
 C            2.26979341       -2.59562928       -1.67983950
 C            0.62268878       -3.60162517       -0.11117738
 C            1.19818888       -3.53978119       -1.43866248
 C           -1.55039113       -2.83111711        0.74855607
 C           -0.81708975       -3.48298944       -0.24399650
 C           -3.39961347       -1.27307689        1.18855536
 C           -2.79960253       -2.32575421        0.39367942
 C           -4.15240319       -0.41356806        0.28999268
 C           -3.30410637        1.55532099        1.45043133
 C           -2.30407922        2.59354204        1.27635395
 C           -3.92451177        1.01972391        0.33576123
 C           -0.60344299        3.53294135       -0.11024807
 C           -1.85471973        2.92885088        0.00097845
 C            1.46902151        3.14065572       -1.14256635
 C            0.09177076        3.55157229       -1.38260751
 C            3.09435393        1.40219317       -1.47540137
 C            3.21305198        0.03128216       -1.95334006
 C            2.09048514        2.21700762       -1.98569355
 C            1.89586969       -1.78373124       -2.82884030
 C            2.30572045       -0.45130876       -2.89654226
 C            0.12722081       -3.25439552       -2.37915075
 C           -1.10457153       -3.17144665       -1.63636775
 C            0.52140858       -2.11726287       -3.17265857
 C           -3.05421679       -2.02220603       -1.00743654
 C           -3.90996943       -0.86505310       -1.06958632
 C           -2.00605666       -2.15108372       -1.90951409
 C           -3.49347927        1.44147125       -0.98538818
 C           -2.48762250        2.39779152       -1.13273991
 C           -3.46512772        0.26613173       -1.84339032
 C           -0.56798093        3.11426009       -2.51704479
 C           -1.86716792        2.47965813       -2.37983616
 C            1.48473371        1.85118111       -3.18377470
 C            1.51100103        0.45605328       -3.59558679
 C            0.17793977        2.38447451       -3.52374217
 C           -0.38001272       -1.08288918       -3.39276157
 C           -1.59761435       -1.03871929       -2.67836234
 C           -2.40164008        0.12159494       -2.72642903
 C           -1.88012018        1.30414430       -3.23713906
 C            0.14897508        0.07882896       -3.94168226
 C           -0.64817679        1.27948099       -3.98364191
