   70
C70 / DATE: 7/ 1/2024 / Origin: Program Fullerene / C70 from database
 C            1.33469945       -0.07822437        4.28580908
 C            2.59407320       -0.43927153        3.67642930
 C            2.51963068       -1.83904828        3.28794301
 C            0.50944045       -1.27224596        4.33769763
 C            1.16841700       -2.30091048        3.55214129
 C           -0.84472010       -0.89194458        3.98521507
 C            0.54586203        0.97251294        3.67338382
 C           -0.82590019        0.50656049        3.58104274
 C            1.06252517        1.71017303        2.61458921
 C            3.03985850        0.31177283        2.52177588
 C            2.34707755        1.44601110        2.11090865
 C            3.05115030       -1.95800738        1.94249142
 C            3.44351633       -0.63039609        1.50040759
 C            2.41707184       -2.80260534        1.04773424
 C            0.45458064       -2.94334177        2.54109172
 C            1.12153002       -3.37155117        1.39412563
 C           -1.60495887       -1.78321420        3.24626953
 C           -0.93732812       -2.86691151        2.53597913
 C           -2.63311698       -1.25861092        2.36969361
 C           -1.60716889        0.91447752        2.49838995
 C           -2.66847925        0.10281231        2.08499555
 C            0.16403807        2.42690145        1.82738535
 C           -1.13131697        1.92569960        1.65057692
 C            0.67877652        3.34298743        0.91701645
 C            2.68864346        1.98342340        0.87031957
 C            2.05193058        3.16246280        0.49658725
 C            3.26051301       -0.25009078        0.17430752
 C            3.19765517        1.11382822       -0.10926730
 C            2.37655105       -2.43833452       -0.35627050
 C            2.73032487       -1.15532494       -0.75377343
 C            0.38501367       -3.57037295        0.15491049
 C            1.19559012       -3.04484416       -0.93537718
 C           -1.67737279       -3.11432752        1.30583759
 C           -2.81374324       -2.20475407        1.28264473
 C           -0.99584211       -3.39242611        0.12537949
 C           -3.29777086       -1.73442814        0.06615767
 C           -3.46927522        0.51721840        1.02896545
 C           -3.88026959       -0.46803029        0.03948633
 C           -1.86647122        2.28530279        0.51730193
 C           -3.12067399        1.72866566        0.31563207
 C           -0.09469783        3.68183559       -0.26238011
 C           -1.23548587        2.94403621       -0.53730441
 C            2.17622284        3.66349927       -0.85628905
 C            0.83669498        3.96620854       -1.33637079
 C            3.23308903        1.49315744       -1.44751601
 C            2.82475562        2.82734869       -1.83910017
 C            2.26661827       -0.68316213       -1.98338516
 C            2.72053213        0.55757918       -2.43091979
 C            0.56454750       -2.41610772       -2.00191743
 C            1.14502964       -1.27971873       -2.57764115
 C           -1.60782504       -3.10531362       -1.09073381
 C           -2.82700066       -2.31020618       -1.11454077
 C           -0.78532821       -2.68760118       -2.21453664
 C           -2.84334813       -1.56232812       -2.36642992
 C           -1.58524059       -1.81230659       -3.05401375
 C           -4.06027663        0.22459411       -1.22315389
 C           -3.61464624        1.59729635       -1.04129759
 C           -3.41974005       -0.29938546       -2.41261734
 C           -1.52750617        2.58605510       -1.85988601
 C           -2.72239868        1.92723435       -2.13624847
 C           -2.70859513        0.79748444       -3.05049561
 C            0.65339484        3.29193462       -2.60558749
 C            1.92821218        2.69908986       -2.97414708
 C            1.94847211        1.31192762       -3.40596819
 C           -0.50761241        2.55473945       -2.81589114
 C            0.47804319       -0.62653741       -3.61309563
 C           -0.95926107       -0.78908858       -3.75016801
 C           -1.55304706        0.54066941       -3.77640603
 C            0.77650019        0.76302659       -3.89851405
 C           -0.46416410        1.50244600       -3.72937898
