   70
C70 / DATE: 7/ 1/2024 / Origin: Program Fullerene / C70 from database
 C            1.66789674       -0.06976822        4.58619641
 C            0.82524169       -1.22633249        4.34241123
 C            1.36112157       -1.94557198        3.19928131
 C            2.69445917       -0.04743217        3.56000947
 C            2.55520621       -1.24241434        2.76285563
 C            2.62445110        1.22521087        2.87898324
 C            0.84645334        1.11482483        4.41296420
 C            1.47077699        1.94402043        3.40478341
 C           -0.54653992       -0.76724246        4.28156446
 C           -0.51855906        0.68600946        4.19184501
 C           -1.42296934       -1.45997816        3.46292526
 C            0.47835331       -2.43772372        2.23155381
 C           -0.88705356       -2.41596192        2.50068326
 C            0.92200866       -2.56143972        0.90706018
 C            2.78212165       -1.16190347        1.40199259
 C            2.22473141       -2.15522709        0.61635231
 C            2.86103836        1.26654784        1.50578151
 C            3.06581779        0.07204824        0.80059692
 C            2.40823620        2.38415120        0.81528779
 C            0.66357290        2.63344774        2.50814221
 C            1.26884590        3.11132808        1.34956182
 C           -1.26376602        1.31513440        3.19709523
 C           -0.72084867        2.41807195        2.51689129
 C           -2.47533014       -0.72408364        2.78901591
 C           -2.38935530        0.65876247        2.68661517
 C           -1.83045429       -2.50138845        1.40574114
 C           -2.86009633       -1.49266779        1.61908853
 C            0.00126418       -2.73105019       -0.14297261
 C           -1.37360041       -2.72686346        0.11560197
 C            0.46523757       -2.80245281       -1.46649985
 C            2.71003333       -2.28452141       -0.66954251
 C            1.84159289       -2.83122347       -1.68602941
 C            3.17576926        0.10253243       -0.59498881
 C            3.35462355       -1.11900370       -1.24458680
 C            2.26677507        2.32948444       -0.62740247
 C            2.59818664        1.16420023       -1.30325850
 C            0.45581540        3.55777252        0.23230956
 C            1.03116651        3.00163463       -0.98095057
 C           -1.51289395        3.12023842        1.61178242
 C           -0.92078646        3.59712671        0.37282860
 C           -3.19468251        1.29194897        1.75030064
 C           -2.83460668        2.61822065        1.29562626
 C           -3.40505101       -0.83603111        0.51645847
 C           -3.67137193        0.53414446        0.60104586
 C           -2.25740601       -2.46366852       -0.91937434
 C           -3.25558420       -1.41936962       -0.74062962
 C           -0.41911627       -2.60300369       -2.54003435
 C           -1.76740409       -2.38461150       -2.27907523
 C            0.05998229       -2.23427961       -3.79978420
 C            2.38985545       -2.39106604       -2.95303033
 C            3.17731498       -1.19713801       -2.68167650
 C            1.47998744       -2.07333496       -4.02684499
 C            2.01148892        0.93123647       -2.55149776
 C            2.51693326       -0.09594060       -3.34438541
 C            1.69822818       -0.67954921       -4.38742398
 C            0.21157194        2.41394371       -1.93843736
 C            0.78977285        1.54912881       -2.86587570
 C           -1.75048990        3.12576287       -0.72134025
 C           -2.99480162        2.65720288       -0.14905684
 C           -3.50569063        1.37102066       -0.58000420
 C           -1.17551971        2.38789591       -1.75162239
 C           -3.19721520       -0.56681122       -1.91419469
 C           -2.44919153       -1.27512688       -2.93349183
 C           -2.99950007        0.79693972       -1.73977095
 C           -1.94678428        1.42742625       -2.41534037
 C           -0.58989605       -1.13807878       -4.49362674
 C            0.40535531       -0.09371842       -4.66293542
 C           -0.02830497        1.03675443       -3.86891226
 C           -1.76054070       -0.53691321       -3.88167285
 C           -1.43587720        0.84871939       -3.57496303
