   70
C70 / DATE: 7/ 1/2024 / Origin: Program Fullerene / C70 from database
 C            1.42541389       -0.14981872        4.09805912
 C            2.46089252       -0.34067824        3.10034578
 C            2.27392447       -1.66058648        2.51263050
 C            0.56572558       -1.32056717        4.07799155
 C            1.03207921       -2.20602320        3.02257477
 C           -0.81129577       -0.86327317        4.03968215
 C            0.58325888        1.02566945        4.01222783
 C           -0.78507286        0.57505446        3.81987852
 C            1.03384827        2.10965990        3.27691777
 C            2.83015022        0.72248711        2.27654303
 C            2.21555700        1.96743539        2.43191172
 C            3.47669192        0.43421300        1.07714750
 C            2.60039934       -1.84804078        1.17881751
 C            3.47093425       -0.93509450        0.59367736
 C            1.74992768       -2.60037925        0.36550571
 C            0.09967269       -2.73690751        2.13638859
 C            0.43418012       -2.85744356        0.77831172
 C           -1.72910852       -1.62703941        3.33879374
 C           -1.23684839       -2.73027896        2.52966930
 C           -2.72586240       -0.94931615        2.53417418
 C           -1.55162658        1.13920341        2.79783621
 C           -2.47901125        0.35144201        2.10683779
 C            0.06899925        2.90668255        2.54057044
 C           -1.21068504        2.40101563        2.30553629
 C            2.02494136        2.82067920        1.26672521
 C            0.79266324        3.56274030        1.46290532
 C            3.27590705        1.30093493       -0.07524441
 C            2.34851426        2.32933042        0.00512828
 C            3.60238020       -0.89239237       -0.84854227
 C            3.33392845        0.47774203       -1.26709877
 C            2.11473431       -2.82567539       -0.96065594
 C            3.07986899       -1.93707785       -1.59312416
 C            1.08680730       -3.13211043       -1.93616567
 C           -0.54352674       -3.19797643       -0.17325295
 C           -0.24104053       -3.12445549       -1.53313203
 C           -2.26807621       -3.03219956        1.56533822
 C           -3.21363538       -1.92275944        1.57653136
 C           -1.88588583       -3.25817190        0.19094384
 C           -3.40899004       -1.50968025        0.20009902
 C           -2.85915104       -2.56463178       -0.62959033
 C           -2.94296330        0.76133471        0.85430104
 C           -3.17115695       -0.18295339       -0.14971309
 C           -1.97902126        2.96278702        1.29081990
 C           -2.84648200        2.10056663        0.50851485
 C            0.08921742        4.00401817        0.35503675
 C           -1.35869994        3.91191958        0.38231128
 C            1.51365328        2.59997833       -1.08402691
 C            0.52941786        3.58472597       -0.96541189
 C            2.44489347        0.71617131       -2.31010631
 C            1.54758382        1.78610743       -2.22576335
 C            2.60945203       -1.65119977       -2.93391016
 C            1.45207156       -2.48906197       -3.18761472
 C            2.24690411       -0.28439386       -3.26327196
 C            0.46154546       -1.68132443       -3.87727999
 C            1.00329995       -0.33630956       -4.01178991
 C           -1.22798281       -2.71814024       -2.43471048
 C           -2.51343308       -2.26259882       -1.93401568
 C           -0.87696233       -1.85489099       -3.55214347
 C           -2.87456864        0.13018751       -1.48074339
 C           -2.68780549       -0.89881384       -2.40406159
 C           -1.77090266       -0.70643446       -3.51433920
 C           -2.69198027        2.45494134       -0.89126951
 C           -1.81221543        3.60880339       -0.96243802
 C           -0.64502902        3.53901725       -1.82138540
 C           -2.54793646        1.44183370       -1.83422984
 C            0.55178400        1.91824253       -3.19303165
 C            0.15437470        0.75891302       -3.97089899
 C           -1.27400264        0.56485511       -3.76068301
 C           -0.66295699        2.64096621       -2.87374423
 C           -1.75168225        1.67904032       -2.95729489
