   70
C70 / DATE: 7/ 1/2024 / Origin: Program Fullerene / C70 from database
 C            1.02163137       -0.06049876        4.89552839
 C            2.28089590       -0.26920222        4.20627473
 C            2.20498510       -1.55930473        3.54419116
 C            0.17307469       -1.21141879        4.62083165
 C            0.83151384       -2.00943892        3.60493744
 C           -1.16073693       -0.72514097        4.36020843
 C            0.24880604        1.13545833        4.61091750
 C           -1.13086042        0.72864646        4.42730390
 C            0.77467445        2.11718966        3.77903936
 C            2.72236232        0.70479744        3.22174003
 C            2.05107407        1.90992601        3.09934249
 C            2.80494212       -1.41696197        2.23702241
 C            3.10561608       -0.01504000        2.01870582
 C            2.25274678       -2.10556640        1.17437196
 C            0.18333865       -2.29773635        2.40195114
 C            0.96260703       -2.63726600        1.29159769
 C           -1.79757580       -1.08636586        3.11075152
 C           -1.14536766       -1.90805172        2.19320284
 C           -1.87406469        1.23660120        3.28458619
 C           -2.46696855        0.09705448        2.61276645
 C           -0.10179615        2.81059950        2.84733312
 C           -1.34011419        2.25970544        2.50530313
 C            1.95213740        2.52718955        1.78961661
 C            0.75347058        3.34615092        1.80303634
 C            2.84334219        0.52437407        0.75292215
 C            2.26565474        1.79476329        0.64123039
 C            2.67105673       -1.72414668       -0.08546270
 C            2.78719327       -0.35081232       -0.33928907
 C            2.36339872       -2.59125894       -1.11613791
 C            0.32516522       -3.07979675        0.12660630
 C            1.12143675       -3.32827845       -0.99451783
 C           -1.65139933       -1.95598571        0.89600922
 C           -1.02673241       -2.77194964       -0.04324694
 C           -2.69573554        0.18811947        1.25002459
 C           -2.52232135       -0.94889850        0.46368498
 C           -1.82899461        2.43510206        1.20718524
 C           -2.63206571        1.43719840        0.64149601
 C            0.18257182        3.68890658        0.59333884
 C           -1.21888991        3.38106747        0.38394476
 C            1.75407697        2.21934145       -0.58876685
 C            0.86596179        3.29653929       -0.62219724
 C            2.47812902        0.15231235       -1.60744820
 C            1.90246609        1.41854084       -1.72348132
 C            2.49073231       -2.13134763       -2.47780340
 C            2.49206040       -0.70417196       -2.70949597
 C            0.52674565       -3.41420233       -2.31672847
 C            1.40339942       -2.71394290       -3.24475069
 C           -1.64133690       -2.95072784       -1.27983994
 C           -0.84588587       -3.28233541       -2.45020666
 C           -2.93368989       -0.91357214       -0.86838232
 C           -2.66570042       -2.00551292       -1.68825483
 C           -3.04359668        1.53822446       -0.68346874
 C           -3.25891055        0.31635741       -1.44394927
 C           -1.43024880        3.33912091       -1.05393747
 C           -0.11787039        3.38031893       -1.68532929
 C           -2.41306969        2.50575752       -1.56506681
 C            1.25637048        1.78231084       -2.90756234
 C            0.10833742        2.66767710       -2.85145195
 C            1.60597411       -0.45045324       -3.83268968
 C            0.85666063       -1.67117028       -4.09690217
 C            0.97548868        0.77977609       -3.91927437
 C           -1.37982911       -2.53958424       -3.58102136
 C           -2.54540370       -1.80539405       -3.12214834
 C           -0.51814091       -1.61229407       -4.29742460
 C           -2.90272603        0.58987126       -2.82906330
 C           -2.22110042        1.87339177       -2.86103956
 C           -0.99704449        1.98979156       -3.51086729
 C           -0.44632542        0.84843977       -4.22610990
 C           -2.45613113       -0.45036966       -3.63316454
 C           -1.18946519       -0.32242356       -4.34052147
