   70
C70 / DATE: 7/ 1/2024 / Origin: Program Fullerene / C70 from database
 C            1.46780050       -0.11317611        4.16239049
 C            2.69175684       -0.25952720        3.38984888
 C            2.58821824       -1.49784456        2.63613860
 C            0.64215994       -1.28540083        3.92474911
 C            1.36037387       -2.16893640        3.03771828
 C           -0.66649732       -0.83689936        3.51652347
 C            0.63957144        1.06573545        3.96423166
 C           -0.66682102        0.61465074        3.51712707
 C            1.20302432        2.19149676        3.38363449
 C            3.23872182        0.86023410        2.78010745
 C            2.60119433        2.15020851        2.98873305
 C            3.61919767        0.78216603        1.37943994
 C            2.95759596       -1.53461873        1.29108722
 C            3.24830560       -0.33528097        0.62995623
 C            2.54887385       -2.63889385        0.54708428
 C            0.66111743       -2.87670758        2.06736756
 C            1.43061506       -3.41986824        1.04817882
 C           -1.30280681       -1.48303340        2.46627712
 C           -0.68929591       -2.56664479        1.81540503
 C           -2.34222373       -0.81225493        1.83305992
 C           -1.31925286        1.26989862        2.47566374
 C           -2.33414894        0.58645174        1.80441407
 C            0.47026568        2.89661092        2.34504353
 C           -0.73138817        2.38621572        1.86692593
 C            2.74328693        2.92092854        1.76748462
 C            3.48317719        2.11572133        0.81354251
 C            1.42965301        3.41403915        1.38740280
 C            3.16731511        2.24587752       -0.52812402
 C            2.92439490       -0.18680716       -0.72501311
 C            3.04414051        1.05013542       -1.34067948
 C            2.34564269       -2.48896972       -0.87961087
 C            2.26113342       -1.20727874       -1.39678543
 C            0.78103784       -4.03752473       -0.08221023
 C            1.38243149       -3.48706958       -1.28875273
 C           -1.36773570       -3.19012545        0.75306732
 C           -0.65199363       -3.90269555       -0.21109707
 C           -3.16447576       -1.53112148        0.97938540
 C           -2.66493689       -2.78152534        0.43780728
 C           -3.90986849       -0.84439819       -0.06264611
 C           -3.06416920        1.26832736        0.83746390
 C           -3.79394410        0.53092276       -0.17885738
 C           -1.17944773        2.79962774        0.61124066
 C           -2.45533137        2.42179536        0.20455305
 C            1.08447623        3.42449313        0.03950944
 C            2.06573422        3.11567256       -0.90335041
 C           -0.26143342        3.30562716       -0.31840328
 C            2.16054290        1.36599482       -2.44965767
 C            1.66765985        2.72332397       -2.24146550
 C            1.30170569       -0.89240168       -2.37071234
 C            1.29446776        0.38660747       -2.93974351
 C            0.30451319       -3.09214999       -2.16975894
 C           -0.91371400       -3.65712102       -1.62009237
 C            0.27222735       -1.79753609       -2.67894678
 C           -3.11384256       -2.86942624       -0.94240967
 C           -3.83416112       -1.64870533       -1.26344209
 C           -2.12661697       -3.09530072       -1.98178303
 C           -0.92462661       -1.33231168       -3.22730513
 C           -3.23448526       -1.07142094       -2.45202989
 C           -2.12838471       -1.92760506       -2.85015262
 C           -3.46909836        1.12075958       -1.47177793
 C           -2.79169995        2.38537367       -1.20764066
 C           -3.06793443        0.30838282       -2.53955753
 C           -0.60497234        3.38782855       -1.66907873
 C            0.39106378        3.04373863       -2.67159518
 C           -1.89132669        2.89088511       -2.13002993
 C            0.20614534        0.78542503       -3.71006846
 C           -0.97579517       -0.05146254       -3.75888785
 C           -2.12621840        0.78414052       -3.44777544
 C           -0.24241465        2.16528414       -3.63374990
 C           -1.66847964        2.15746331       -3.35937167
