   70
C70 / DATE: 7/ 1/2024 / Origin: Program Fullerene / C70 from database
 C            1.24242122       -0.05115110        4.45094665
 C            2.58812886       -0.29111589        3.96607304
 C            2.63887861       -1.64453349        3.44386665
 C            0.44379289       -1.22803027        4.15312604
 C            1.29548883       -2.19808658        3.49247348
 C           -0.75759825       -0.79229406        3.47136711
 C            0.52296790        1.11156672        3.96165930
 C           -0.73262188        0.65758254        3.38874740
 C            1.22340185        2.11424484        3.31019780
 C            3.13232167        0.59465500        2.95272079
 C            2.54935378        1.83637308        2.75929385
 C            3.32291840       -1.60459405        2.16256792
 C            3.45305907       -0.20694530        1.78276653
 C            2.94207231       -2.51830411        1.19572460
 C            0.81320447       -2.85817374        2.36624444
 C            1.73849997       -3.30115758        1.42160613
 C           -1.19363170       -1.50587000        2.36538320
 C           -0.51613055       -2.66461564        1.97596394
 C           -2.03141757       -0.86961960        1.45451604
 C           -1.22955634        1.27151280        2.23775942
 C           -2.01966301        0.52722603        1.36502444
 C            0.52318561        2.92832027        2.33248325
 C           -0.69367207        2.48817460        1.80396125
 C            2.56919398        2.40313550        1.42632350
 C            1.53876298        3.41914505        1.42240617
 C            3.02692581        0.21676281        0.51821843
 C            2.68161285        1.55600938        0.32181342
 C            2.88662298       -2.08497947       -0.18547312
 C            2.73860364       -0.72737901       -0.47090689
 C            1.27743478       -3.75665874        0.12116992
 C            2.06589179       -3.05649240       -0.88471369
 C           -1.01268332       -3.39399848        0.89956509
 C           -0.08336600       -3.93778110       -0.07858583
 C           -2.67449463       -1.63108808        0.48225039
 C           -2.17102675       -2.89410555        0.17662113
 C           -3.52416425       -1.00568593       -0.42311420
 C           -2.62768508        1.16383718        0.28767778
 C           -3.51377496        0.44457889       -0.51375113
 C           -1.12921635        3.04161067        0.59261870
 C           -2.14707805        2.40608199       -0.13670627
 C            1.12186484        3.90387562        0.20244596
 C           -0.30226486        3.98196273       -0.03239044
 C            2.11711331        1.96020521       -0.89043624
 C            1.65729447        3.27356646       -0.98880127
 C            2.07221702       -0.33600573       -1.63644671
 C            1.66509679        0.99047025       -1.79443065
 C            1.47689409       -2.68576766       -2.08249716
 C            1.59342955       -1.30532801       -2.51906939
 C           -0.64921857       -3.72018913       -1.39993438
 C           -2.02455121       -3.28984086       -1.21629339
 C            0.12831416       -3.13325260       -2.39257523
 C           -3.61469758       -1.53375287       -1.77317657
 C           -2.64146742       -2.52426719       -2.19599458
 C           -3.67541465        0.80452915       -1.91467415
 C           -3.53570266       -0.41472999       -2.69015915
 C           -2.49944593        2.87275422       -1.40631188
 C           -3.02628783        1.93606098       -2.37715206
 C           -0.42206986        4.22570544       -1.45362440
 C            0.76575187        3.64503286       -2.06860060
 C           -1.57297661        3.70292098       -2.14589377
 C            0.68710642        1.30050982       -2.75285127
 C           -1.98092098        1.76482976       -3.37765688
 C            0.31412788        2.61882846       -2.97823514
 C           -1.08015967        2.89312955       -3.24848377
 C            0.43449653       -1.00613642       -3.34044099
 C           -0.46381021       -2.14750064       -3.28197473
 C           -1.83342426       -1.92534748       -3.25141589
 C           -2.33377392       -0.58173043       -3.48641994
 C           -0.08600392        0.28026275       -3.31043136
 C           -1.44848028        0.49104759       -3.56596062
