   70
C70 / DATE: 7/ 1/2024 / Origin: Program Fullerene / C70 from database
 C            1.59538606        0.01738801        4.69446680
 C            0.77727997       -1.14087374        4.39987825
 C            1.36523605       -1.84848483        3.27084032
 C            2.70546381        0.01202259        3.76433445
 C            2.53558627       -1.10891112        2.85026985
 C            2.80096178        1.34315560        3.19926979
 C            0.79617596        1.19805740        4.40998733
 C            1.53533386        2.01353302        3.46350805
 C           -0.59219062       -0.68238837        4.27344872
 C           -0.53466354        0.75246294        4.04220952
 C           -1.43376078       -1.43481395        3.47672483
 C            0.50535396       -2.36686729        2.31039690
 C           -0.83611547       -2.47065215        2.65195668
 C            0.85136550       -2.30466067        0.95328333
 C            2.75528163       -0.89143896        1.49510662
 C            1.93589413       -1.51397576        0.54324648
 C            3.34190977        1.45361433        1.93075550
 C            3.47213609        0.24344103        1.13335066
 C            2.82976178        2.48010548        1.04149944
 C            0.85021042        2.59777177        2.39898093
 C            1.58494475        3.04179417        1.29457760
 C           -1.11926842        1.28217322        2.89278981
 C           -0.53032518        2.38575927        2.27697617
 C           -2.37771712       -0.74585990        2.61749640
 C           -2.09918554        0.55088304        2.21062677
 C           -1.79024847       -2.76876970        1.61832002
 C           -2.78961374       -1.71252847        1.62464027
 C           -0.03391646       -2.82477339       -0.00602220
 C           -1.33507216       -3.19473374        0.38414577
 C            0.29196210       -2.72977507       -1.36908115
 C            2.12612891       -1.24279613       -0.81961161
 C            1.36628437       -1.93199044       -1.77515940
 C            3.49557855        0.64878877       -0.24980850
 C            3.15070234        2.06286398       -0.31144623
 C            2.97304617       -0.19193708       -1.21452964
 C            2.37363085        2.51711207       -1.37833309
 C            0.93524398        3.69195650        0.25314998
 C            1.30363275        3.37976606       -1.12236198
 C           -1.23531660        3.02947735        1.26983842
 C           -0.50534009        3.82937745        0.30750870
 C           -2.54890905        0.98187313        0.95764029
 C           -2.25335687        2.28282391        0.55077961
 C           -3.25380705       -1.27751277        0.39040699
 C           -2.97331504        0.04357650       -0.00108516
 C           -2.32294063       -3.29921844       -0.58204725
 C           -3.34831861       -2.26564930       -0.58582032
 C           -0.59468719       -3.21644030       -2.33806420
 C           -1.94154964       -3.56009519       -1.94407022
 C           -0.69838104       -2.53740549       -3.62060326
 C            1.48114002       -1.60018286       -3.12723485
 C            0.30177788       -1.65250759       -3.96345810
 C            2.81723967        0.37341504       -2.46849580
 C            2.35182114        1.74844820       -2.54272467
 C            2.15384140       -0.37767612       -3.50115466
 C           -0.06729472       -0.26523643       -4.19994467
 C            1.14833852        1.73101802       -3.35457493
 C            1.15644119        0.49593402       -4.10496369
 C            0.07206323        3.23812645       -1.88904608
 C           -1.03664154        3.53904295       -1.01271319
 C           -2.07568264        2.54906600       -0.86470939
 C           -0.03568565        2.18767216       -2.79308196
 C           -2.86471608        0.37228310       -1.36396176
 C           -1.23370627        0.23082433       -3.61651271
 C           -2.11363886        1.47491855       -1.73613781
 C           -1.16064659        1.34267380       -2.75819881
 C           -3.57496413       -1.88062613       -1.95616406
 C           -2.86206479       -2.82572762       -2.79647976
 C           -2.06345184       -2.06330044       -3.73330039
 C           -3.18813990       -0.54685313       -2.34827073
 C           -2.31252255       -0.64853763       -3.50323902
