   70
C70 / DATE: 7/ 1/2024 / Origin: Program Fullerene / C70 from database
 C            1.32093985       -0.01765690        4.48642332
 C            2.52888098       -0.35147981        3.76840878
 C            2.47894617       -1.77059904        3.46394543
 C            0.49490465       -1.21564891        4.55174253
 C            1.12221731       -2.22312116        3.71546650
 C           -0.87394795       -0.82094579        4.27550292
 C            0.48562754        1.05047554        3.97908912
 C           -0.88877479        0.62968991        4.16155486
 C            0.82927943        1.72134547        2.80449779
 C            2.81591825        0.34405930        2.53016532
 C            1.95270569        1.32661628        2.05965407
 C            3.03427676       -1.95375523        2.13827802
 C            3.32051087       -0.63553219        1.58786743
 C            2.45109619       -2.89771832        1.30913309
 C            0.39844917       -2.81153090        2.67672894
 C            1.08147264       -3.32268197        1.57326438
 C           -1.62847399       -1.58413238        3.39325981
 C           -0.97863015       -2.60388460        2.58161906
 C           -2.64070447       -0.94040744        2.57217722
 C           -1.86591403        1.24584183        3.39495996
 C           -2.82392519        0.43251470        2.65968868
 C           -0.13673487        2.53517905        2.20543140
 C           -1.47909569        2.34811333        2.52730419
 C            0.18062985        3.22132119        1.03892168
 C            2.05051421        1.69411613        0.72080407
 C            1.35031046        2.80890879        0.28713501
 C            3.12790487       -0.42238347        0.22311202
 C            2.55345059        0.78131553       -0.21230432
 C            2.58335200       -2.72658159       -0.12366785
 C            3.10027029       -1.53365511       -0.62130849
 C            0.39564550       -3.42430740        0.29242646
 C            1.39084937       -3.27134264       -0.74953786
 C           -1.61854637       -2.60822084        1.27216965
 C           -2.62768579       -1.56832580        1.25978390
 C           -0.84694080       -2.82582114        0.13806439
 C           -2.78079249       -0.78314697        0.12254403
 C           -3.19017187        1.16799506        1.46337546
 C           -2.48087957        2.43659230        1.48075599
 C           -3.31596374        0.50109162        0.24962462
 C           -0.87063290        3.54307950        0.08328279
 C           -2.15592397        3.02317019        0.26185721
 C            1.06097690        2.96852804       -1.12557411
 C           -0.25784583        3.56659127       -1.24002839
 C            2.34514306        0.98826134       -1.58062653
 C            1.44665444        1.97162469       -2.01505560
 C            2.99211277       -1.32485818       -1.98901864
 C            2.80912455        0.02869649       -2.47114420
 C            1.01918734       -2.74849590       -1.98015386
 C            2.03378648       -2.13893791       -2.71237147
 C           -1.12379309       -2.12635925       -1.03931366
 C           -2.14034972       -1.15857460       -1.06410299
 C           -0.30014643       -2.31092657       -2.15498769
 C           -2.44502433       -0.48413282       -2.25073848
 C           -3.44703908        1.28778656       -0.88469702
 C           -2.90032779        2.63705014       -0.85045506
 C           -3.13839966        0.72107271       -2.18150507
 C           -1.02653215        3.29358340       -2.36016486
 C           -2.42377563        2.95526642       -2.18183361
 C           -2.72189490        1.81776564       -3.03524063
 C            0.76847051        1.83871661       -3.23645591
 C           -0.49151856        2.42083643       -3.39178262
 C           -1.58658781        1.60621648       -3.90536855
 C            2.20465117       -0.07376510       -3.78382233
 C            1.71382389       -1.43798948       -3.93542344
 C            1.11922894        0.82086767       -4.11958272
 C           -0.68975977       -1.78037554       -3.38217508
 C           -1.74456892       -0.78395500       -3.41901539
 C           -1.30316348        0.30481304       -4.28872106
 C            0.32626282       -1.36856813       -4.33548458
 C            0.05689028        0.01071545       -4.68835802
