   70
C70 / DATE: 7/ 1/2024 / Origin: Program Fullerene / C70 from database
 C            1.26506132        0.12173541        4.73231805
 C            2.50392715       -0.01848032        4.00055805
 C            2.53991073       -1.37305516        3.48033109
 C            0.43855160       -1.03827925        4.41610562
 C            1.18591990       -1.87123048        3.48910394
 C           -0.87078308       -0.55079028        4.01463857
 C            0.46655781        1.30118972        4.48413212
 C           -0.90586937        0.85778709        4.32688750
 C            0.77832412        2.13014904        3.32841536
 C            2.75778418        0.86905393        2.87570440
 C            1.75107030        1.71598195        2.42542602
 C            3.21845464       -1.31451338        2.21021884
 C            3.48601431        0.08437619        1.91421087
 C            2.75664688       -2.09865817        1.16032804
 C            0.59665413       -2.21643079        2.27590715
 C            1.39315978       -2.44076170        1.13857580
 C           -1.39935148       -0.96994802        2.79631138
 C           -0.77455995       -2.02036300        2.12432139
 C           -2.30851353       -0.14955036        2.10513425
 C           -1.52041254        1.73462604        3.36259635
 C           -0.48439166        2.60440462        2.82482782
 C           -2.42776291        1.20623380        2.45453050
 C           -0.60009342        2.96472967        1.49170977
 C            1.53104573        1.86181113        1.04580921
 C            0.37804808        2.52357075        0.57963600
 C            3.46230488        0.44663467        0.57923107
 C            2.43984314        1.30265556        0.12698571
 C            3.41009013       -1.88741213       -0.04643737
 C            3.91323849       -0.54319553       -0.27982523
 C            2.79045674       -2.31481158       -1.27929504
 C            0.76369838       -2.75214779       -0.07795651
 C            1.41464462       -2.51766851       -1.29267978
 C           -1.40927809       -2.58711045        1.03680443
 C           -0.59694278       -3.03604404       -0.07927148
 C           -2.86718793       -0.62063879        0.90546329
 C           -2.57841798       -1.92294273        0.49745465
 C           -3.49895575        0.26078024        0.01695146
 C           -2.86454400        2.10188185        1.49264827
 C           -1.90775834        3.10285524        1.04888819
 C           -3.55496429        1.61501251        0.32356905
 C           -2.15296385        3.36704269       -0.34260568
 C           -3.31432374        2.58494286       -0.72960343
 C            0.11213204        2.55788657       -0.80123297
 C           -1.09467636        3.07269156       -1.27620093
 C            2.16337938        1.37637123       -1.24878087
 C            0.91165577        1.82681527       -1.67827431
 C            3.88036312       -0.29854668       -1.69506370
 C            3.41405052       -1.52389997       -2.32144143
 C            3.02783302        0.76746679       -2.16061596
 C            2.61806107       -1.13404375       -3.45596028
 C            2.51305021        0.32038770       -3.43525569
 C            0.67199618       -2.27813677       -2.46320878
 C            1.26659629       -1.64019758       -3.55606559
 C           -1.36544768       -2.83318356       -1.29170741
 C           -2.65861975       -2.28046319       -0.90479785
 C           -0.72383426       -2.37081441       -2.43742566
 C           -3.75240953       -0.12993551       -1.30171340
 C           -3.32866315       -1.43788019       -1.77358758
 C           -3.08244827        2.09488371       -2.06972643
 C           -1.71486210        2.45532264       -2.43351874
 C           -3.54575430        0.82634404       -2.38381616
 C            0.41224480        1.47782088       -2.94721334
 C            1.14786379        0.64299540       -3.77890109
 C            0.52870146       -0.59131854       -4.22283864
 C           -0.95582235        1.57865656       -3.19731494
 C           -1.47005559       -1.72160178       -3.42364348
 C           -2.82339537       -1.28358669       -3.12380538
 C           -2.91387074        0.12384077       -3.47914907
 C           -0.85048484       -0.66100092       -4.20059363
 C           -1.59191570        0.54970394       -3.89620640
