   70
C70 / DATE: 7/ 1/2024 / Origin: Program Fullerene / C70 from database
 C            0.99360109        0.00485808        4.83869396
 C            2.29484456       -0.38896319        4.37185154
 C            2.19961385       -1.79483548        3.99762098
 C            0.15209336       -1.18061373        4.76578761
 C            0.79185950       -2.06233254        3.81505841
 C           -1.17915936       -0.72083897        4.47209833
 C            0.29200004        1.04086114        4.11258841
 C           -1.10071566        0.72449642        4.31274732
 C            0.72006819        1.40869381        2.82870332
 C            2.84489343        0.29576799        3.22382314
 C            2.01465786        1.07175448        2.39949906
 C            3.07828845       -1.98547450        2.87405850
 C            3.69089468       -0.69398573        2.60654832
 C            2.50612938       -2.42720826        1.61822403
 C            0.26936414       -2.16383923        2.51701757
 C            1.12892939       -2.36526787        1.42387221
 C           -1.82951556       -1.21986900        3.27950750
 C           -1.08179809       -1.86336011        2.29103542
 C           -2.01985256        1.07042445        3.26235498
 C           -2.70681357       -0.14819201        2.87073273
 C           -0.22031640        1.90099808        1.90717435
 C           -1.58827644        1.90307042        2.24235298
 C            0.17717255        2.18656849        0.59138602
 C            2.37978898        1.26015116        1.05486298
 C            1.48117274        1.88010703        0.16935526
 C            3.86005540       -0.61124970        1.18545112
 C            3.35862473       -1.84782357        0.61020775
 C            3.48886176        0.55881283        0.54458382
 C            2.90155944       -1.76163682       -0.69455170
 C            0.65114207       -2.18321538        0.12240887
 C            1.54473990       -2.02247835       -0.95042662
 C           -1.57828970       -1.83128466        0.98648012
 C           -0.71888854       -2.06000518       -0.09317671
 C           -3.22433415       -0.18577035        1.58706569
 C           -2.82483003       -1.23545155        0.76023515
 C           -2.52607025        2.11673829        1.24511283
 C           -3.47344109        1.04464065        0.99048441
 C           -0.75319540        2.71488653       -0.31635043
 C           -2.10548390        2.63408841       -0.03091404
 C           -0.39917538        2.91504235       -1.64136408
 C            1.86004233        2.10065122       -1.16384799
 C            0.94536681        2.62133202       -2.07353321
 C            3.67957491        0.52286098       -0.82435819
 C            3.52327214       -0.77802603       -1.45029510
 C            2.99123815        1.47030110       -1.66156156
 C            3.08753171       -0.56498525       -2.80212446
 C            2.94192319        0.87052135       -2.98442427
 C            1.03421425       -1.78048055       -2.23697947
 C            1.84284183       -1.17030110       -3.20344178
 C           -1.22025940       -2.03479273       -1.39487398
 C           -0.34226015       -1.85506231       -2.47255317
 C           -3.38235122       -1.31528847       -0.50964841
 C           -2.59892365       -1.91360086       -1.57125423
 C           -3.82996636        1.08071226       -0.41232856
 C           -3.01349693        2.11028779       -1.04248417
 C           -4.01552094       -0.12659485       -1.06617799
 C           -1.31871875        2.49475304       -2.69255509
 C           -2.54351377        1.92469966       -2.34183606
 C            0.87174820        2.07454740       -3.42492693
 C            1.76201239        1.07852499       -3.80028962
 C            1.24611090       -0.24085436       -4.14150188
 C           -0.53031658        1.93923168       -3.78232367
 C           -0.82262281       -1.42522330       -3.71551874
 C           -0.09851642       -0.38936365       -4.42388338
 C           -0.95894674        0.78315252       -4.42358074
 C           -3.13571466       -1.40019276       -2.81514703
 C           -3.83202901       -0.16400906       -2.50110057
 C           -3.09949502        0.91756708       -3.13528448
 C           -2.22410948       -1.11710922       -3.89559430
 C           -2.30931435        0.30847698       -4.18877210
