   70
C70 / DATE: 7/ 1/2024 / Origin: Program Fullerene / C70 from database
 C            1.13448352       -0.11604158        4.53663409
 C            2.33036838       -0.43294937        3.78984924
 C            2.16886534       -1.77286058        3.24741699
 C            0.27711298       -1.29023179        4.50795386
 C            0.80399402       -2.18693661        3.49464032
 C           -1.08796697       -0.82869242        4.37972348
 C            0.33333509        1.01559567        4.11393694
 C           -1.05856186        0.61558063        4.20664727
 C            0.72163690        1.77279292        3.01228859
 C            2.71496484        0.43330332        2.69213507
 C            1.96057497        1.55848864        2.38918090
 C            2.63984102       -1.74595676        1.87994381
 C            3.13556412       -0.41177632        1.59697813
 C            1.89853192       -2.37652166        0.89354894
 C            0.00388182       -2.54765638        2.40888858
 C            0.60781631       -2.84414011        1.17711570
 C           -1.89777383       -1.37005451        3.31044666
 C           -1.38315330       -2.36062348        2.47847387
 C           -1.95150325        0.95264756        3.10513675
 C           -2.61813936       -0.26714804        2.69767560
 C           -0.27076066        2.45266351        2.30883779
 C           -1.50224343        1.82781774        2.12402106
 C            0.12405594        3.41781471        1.39927757
 C            2.19676506        2.18551510        1.16760647
 C            1.48956423        3.35430693        0.92273700
 C            3.00295649        0.06885562        0.29692638
 C            2.66304034        1.41384046        0.08774932
 C            2.23432507       -2.10006717       -0.42471264
 C            2.79199635       -0.85352612       -0.72836031
 C            1.65780466       -2.87625457       -1.42067101
 C           -0.16161424       -3.38138035        0.13975252
 C            0.42156031       -3.57061151       -1.11355191
 C           -2.16205519       -2.70425099        1.38279398
 C           -1.54938982       -3.35283156        0.24180103
 C           -3.01972024       -0.41110897        1.37522587
 C           -3.09109890       -1.70887286        0.87104942
 C           -2.03397839        1.73980975        0.83364463
 C           -2.85152325        0.65672243        0.48733627
 C           -0.70929256        3.65055164        0.23744851
 C           -1.61914863        2.66104288       -0.13848609
 C            1.52086169        3.94761426       -0.39301209
 C            0.14780727        4.26925581       -0.75492593
 C            2.58415848        1.90270411       -1.22795681
 C            2.09024667        3.18212457       -1.47722830
 C            2.82725212       -0.40736164       -2.04130063
 C            2.67911132        1.01318437       -2.29909768
 C            1.57392373       -2.37416016       -2.78203416
 C            2.08708777       -1.12007793       -3.06774507
 C           -0.41325709       -3.53008304       -2.30297261
 C            0.26250170       -2.71750815       -3.29967805
 C           -2.35912177       -3.02537490       -0.92490609
 C           -3.24192207       -1.92945543       -0.55570495
 C           -1.77615677       -3.05011658       -2.18421227
 C           -3.25658596        0.50277911       -0.83328306
 C           -3.37419666       -0.83346094       -1.39537596
 C           -1.90077203        2.43920575       -1.49546564
 C           -2.69816102        1.36227851       -1.85673479
 C           -0.03263773        3.91527005       -2.14260814
 C            1.23198379        3.39036271       -2.63050158
 C           -1.05760105        2.95197730       -2.48103064
 C            1.78096035        1.16168967       -3.43827963
 C            1.23620120       -0.14774577       -3.73346108
 C            0.94044194        2.25853007       -3.49161286
 C           -0.49698001        2.03762244       -3.46273487
 C           -0.63675770       -1.64472161       -3.69153823
 C           -1.92510818       -1.90566565       -3.07303608
 C           -2.72112953       -0.83401621       -2.69551005
 C           -2.26317010        0.51773533       -2.95951888
 C           -0.14621821       -0.34046639       -3.75257530
 C           -1.00787791        0.74102457       -3.52499925
