   70
C70 / DATE: 7/ 1/2024 / Origin: Program Fullerene / C70 from database
 C            1.21083794        0.08497765        5.08722787
 C            0.42867038       -1.13275265        4.95313127
 C            1.34812624       -2.19442852        4.61061191
 C            2.49218940       -0.15047875        4.44728390
 C            2.61275071       -1.57446417        4.23299807
 C            2.58238098        0.73324032        3.29932554
 C            0.53373788        1.12611119        4.33649614
 C            1.44403865        1.63079819        3.32694814
 C           -0.68533776       -0.84645357        4.06167405
 C           -0.73151052        0.59381239        3.87909280
 C           -0.95086809       -1.66933283        2.95986933
 C            0.97557594       -3.11000910        3.55184035
 C           -0.20916810       -2.83473731        2.75394790
 C            2.94589012       -2.04622809        2.90473867
 C            2.09558948       -3.18345439        2.63121765
 C            2.98401856        0.23829646        2.06466341
 C            3.16141408       -1.14126419        1.86864786
 C            2.76281139        1.04393959        0.94683363
 C            0.89588858        2.03164046        2.11024428
 C            1.65988479        1.90843275        0.94642039
 C           -1.22395752        1.06758827        2.67607980
 C           -0.49350984        2.03306684        1.98549646
 C           -1.67239510       -1.13515130        1.88681064
 C           -2.01732378        0.21612350        1.92366405
 C           -1.65333313       -1.78944078        0.65033762
 C            0.10491923       -3.23213481        1.39258507
 C            1.55068765       -3.30900402        1.29188289
 C           -0.58978883       -2.63513827        0.34728965
 C            3.10779131       -1.62942901        0.56493705
 C            2.15453332       -2.61118512        0.25440894
 C            3.31850148        0.63880664       -0.25839321
 C            3.54739316       -0.78190914       -0.44353957
 C            2.79659536        1.17167049       -1.50106683
 C            1.08837951        2.32932472       -0.26123569
 C            1.61747325        1.90249402       -1.48450471
 C           -1.04924831        2.51555929        0.80653345
 C           -0.19162315        2.88360988       -0.22977057
 C           -2.66959513        0.76850011        0.83089046
 C           -2.32881934        2.07276304        0.48027385
 C           -2.39042347       -1.25180769       -0.40211455
 C           -3.11982429       -0.08802834       -0.16490145
 C           -2.01499676       -1.56492217       -1.71013100
 C            0.04240702       -2.49493740       -0.89053086
 C            1.44203176       -2.50386120       -0.93879965
 C           -0.70102377       -1.98416341       -1.96055991
 C            3.21877740       -1.10510244       -1.81556441
 C            2.94532347        0.14309036       -2.50435038
 C            2.09600772       -1.98784873       -2.04569853
 C           -0.05519078       -1.60093029       -3.14715365
 C            1.83231182       -0.09031912       -3.39617196
 C            1.32127171       -1.42629177       -3.12786337
 C            0.82896114        1.95752663       -2.64263297
 C            0.89761033        0.92051124       -3.58755957
 C           -0.74615734        3.36429699       -1.41289579
 C           -0.23939259        2.85023295       -2.67289855
 C           -2.98920508        2.67669101       -0.58098495
 C           -2.19433794        3.44806677       -1.51707775
 C           -3.91430395        0.44045488       -1.17647705
 C           -3.93469018        1.88307648       -1.34684271
 C           -2.82100277       -1.14005522       -2.76251391
 C           -3.85737487       -0.15889800       -2.49541336
 C           -0.74403949       -0.81100333       -4.06029180
 C           -0.25907614        0.54476278       -4.26494485
 C           -2.18632760       -0.76539152       -4.00493256
 C           -1.37742217        2.59515017       -3.54378877
 C           -2.57712514        3.05481867       -2.86193084
 C           -3.72892186        2.17511467       -2.75533755
 C           -3.72491371        0.91402876       -3.47134496
 C           -1.40535639        1.42998631       -4.29956873
 C           -2.59719686        0.59199219       -4.32461609
