   70
C70 / DATE: 7/ 1/2024 / Origin: Program Fullerene / C70 from database
 C            1.31025830        0.09239173        5.06503567
 C            0.53594585       -1.12757127        4.90988949
 C            1.43722437       -2.16572805        4.46402826
 C            2.60637792       -0.13500972        4.45159375
 C            2.75046567       -1.56426030        4.27415198
 C            2.70642139        0.73629549        3.28996549
 C            0.64041170        1.13534008        4.30790979
 C            1.55466350        1.62135613        3.29756768
 C           -0.61624171       -0.81454184        4.08796197
 C           -0.63221918        0.61565106        3.85758997
 C           -0.96055829       -1.63739706        3.01992381
 C            1.11154925       -2.89304569        3.25163068
 C           -0.04980091       -2.59498822        2.54300220
 C            3.27406689       -2.04986056        3.01480935
 C            2.34000476       -3.03811617        2.50061090
 C            3.15006251        0.23620673        2.06414594
 C            3.51990659       -1.10716834        1.93761390
 C            2.82608464        0.93820896        0.90185175
 C            1.02579525        2.00674825        2.07303299
 C            1.84427923        1.93511178        0.95614776
 C           -1.11791761        1.05143757        2.63146977
 C           -0.35320609        1.94567396        1.87571536
 C           -1.92368864       -1.15343070        2.13495715
 C           -2.02389021        0.23229303        1.95776383
 C           -2.32797021       -1.99541740        1.11090490
 C           -0.11293649       -2.97168597        1.19910054
 C           -1.34656368       -2.91096762        0.56793858
 C            2.28224366       -2.87444005        1.05632201
 C            3.19506852       -1.80414331        0.70394732
 C            1.04603022       -2.90790967        0.41944986
 C            3.08972186        0.33072868       -0.32350951
 C            2.90433414       -1.04169618       -0.41718386
 C            2.92758874        1.08447974       -1.47347893
 C            1.38605327        2.49188492       -0.23576979
 C            2.18258426        2.31995067       -1.36030674
 C           -0.86258615        2.34802060        0.64399834
 C            0.00990887        2.72059598       -0.38585246
 C           -2.63742743        0.74839146        0.81410148
 C           -2.15687913        1.96425347        0.31946985
 C           -3.09408908       -1.45697242        0.00815180
 C           -3.37498840       -0.10107717       -0.02022127
 C           -1.40035206       -2.79962100       -0.87854926
 C           -2.62230248       -2.08739361       -1.21285206
 C            0.96292497       -2.39475041       -0.87735028
 C            1.95726387       -1.51489329       -1.32711452
 C           -0.23687952       -2.51632645       -1.57975595
 C            2.43224824        0.41728331       -2.66296286
 C            1.77770166       -0.80444155       -2.51614322
 C            1.65110212        2.62273345       -2.66979161
 C            1.85961587        1.44953781       -3.50768357
 C           -0.52341627        3.09172122       -1.63220227
 C            0.26040328        2.99546121       -2.78225816
 C           -2.76200327        2.55373726       -0.77744883
 C           -1.90930910        3.15126211       -1.79019708
 C           -3.90536936        0.40288404       -1.20243655
 C           -3.81429528        1.82461734       -1.44940612
 C           -2.69439635       -1.36266480       -2.39965097
 C           -3.57525447       -0.28146108       -2.44608957
 C           -0.34573956       -1.97967970       -2.85568132
 C            0.71419824       -1.12633151       -3.35602386
 C           -1.62014064       -1.42239468       -3.29276289
 C            0.61920966        1.18286365       -4.20986001
 C           -0.26704939        2.30516187       -3.94943370
 C            0.10703183       -0.10769936       -4.20521588
 C           -1.33341916       -0.30755490       -4.18864923
 C           -2.47659173        2.82608772       -3.09018266
 C           -3.66607550        2.02328398       -2.87941621
 C           -3.43085094        0.72334700       -3.48389145
 C           -1.63999312        2.13417853       -4.05223788
 C           -2.18434969        0.79145927       -4.22018356
