   70
C70 / DATE: 7/ 1/2024 / Origin: Program Fullerene / C70 from database
 C            1.18453832        0.07161345        4.42760982
 C            2.49864927       -0.18807462        3.88319631
 C            2.54649251       -1.59446365        3.53221940
 C            0.37129556       -1.11599782        4.21223767
 C            1.18105517       -2.08546583        3.50721581
 C           -0.87420561       -0.69133022        3.61422534
 C            0.44289625        1.20133717        3.90969008
 C           -0.91002930        0.75750597        3.62376367
 C            1.04534010        2.06232245        3.00194187
 C            2.92680725        0.56724409        2.71922120
 C            2.12651433        1.59710497        2.23577354
 C            3.33077057       -1.71820216        2.32261955
 C            3.50103826       -0.37519227        1.77365597
 C            3.00113865       -2.74226587        1.45019522
 C            0.70230481       -2.65722328        2.32855200
 C            1.62724383       -3.23734322        1.45832963
 C           -1.34504701       -1.33922500        2.48924554
 C           -0.56805121       -2.31218356        1.84388884
 C           -2.35854657       -0.71827363        1.77871662
 C           -1.62153217        1.42657736        2.62363525
 C           -2.36589844        0.68243721        1.69473199
 C            0.22082474        3.03752551        2.46044094
 C           -1.18673358        2.70503814        2.27726710
 C            0.66618122        3.74645792        1.28089706
 C            2.20063520        1.91013856        0.87630302
 C            1.62813466        3.08903502        0.42341279
 C            3.32505691       -0.17074395        0.40186310
 C            2.57419728        0.92494677       -0.04159238
 C            3.39277557       -2.59069115        0.06716148
 C            3.54039369       -1.24379993       -0.45435069
 C            1.24322131       -3.51146403        0.08233349
 C            2.40103449       -3.26932833       -0.74458108
 C           -0.96777231       -2.76412285        0.58034704
 C            0.00016931       -3.08298491       -0.36776782
 C           -3.02273997       -1.47952155        0.83337923
 C           -2.26655580       -2.51466326        0.15521529
 C           -3.86823095       -0.82380806       -0.13559636
 C           -2.90339037        1.31699830        0.56271426
 C           -3.73378700        0.60651912       -0.30317817
 C           -1.62519867        3.30181318        1.03153485
 C           -0.50579829        4.05101341        0.48498920
 C           -2.41859419        2.56441861        0.16199133
 C            1.12492654        3.15174782       -0.93534631
 C           -0.15574637        3.84599254       -0.90592694
 C            2.10914701        0.98741482       -1.36856923
 C            1.28322611        2.04825448       -1.76957908
 C            2.94464248       -1.23328354       -1.77122957
 C            2.21746460       -2.48374950       -1.93781208
 C            2.35334358       -0.07130415       -2.25402885
 C           -0.16889639       -2.67608868       -1.70385439
 C            0.95653967       -2.41033039       -2.50794626
 C           -2.52683042       -2.38746440       -1.26579835
 C           -3.63176374       -1.45393988       -1.42331353
 C           -1.45498475       -2.32969365       -2.15348019
 C           -3.67038296        0.87220676       -1.73070352
 C           -3.52673756       -0.40385794       -2.41873319
 C           -2.38292610        2.88622944       -1.19526670
 C           -1.15574796        3.42337664       -1.76567897
 C           -2.96218483        1.98035378       -2.17403032
 C            0.42341453        1.89520398       -2.86063965
 C           -0.80012501        2.56252928       -2.87414065
 C           -2.00471291        1.84397443       -3.26205094
 C            1.53424409       -0.22002323       -3.37065046
 C            0.84043567       -1.48741939       -3.53401065
 C            0.60951105        0.83263601       -3.73180800
 C           -1.62111860       -1.63337863       -3.35257455
 C           -2.58189335       -0.54132531       -3.42707916
 C           -1.87887336        0.63141324       -3.92672044
 C           -0.45680996       -1.22671415       -4.10342329
 C           -0.55375884        0.20356159       -4.33905376
