   70
C70 / DATE: 7/ 1/2024 / Origin: Program Fullerene / C70 from database
 C            1.67210376        0.04561113        4.55273504
 C            0.86713250       -1.16224345        4.54094736
 C            1.48932448       -2.09837425        3.62605875
 C            2.65897886       -0.06885843        3.49215964
 C            2.56312643       -1.39700401        2.93567400
 C            2.48684645        1.05251720        2.59925755
 C            0.80215131        1.15703278        4.21950752
 C            1.40306232        1.87328570        3.10986630
 C           -0.51200264       -0.78542597        4.30714664
 C           -0.54224325        0.64389677        4.03946461
 C           -1.30055650       -1.62946024        3.54228825
 C            0.68774994       -2.95939297        2.88196032
 C           -0.70571758       -2.81202009        2.93164147
 C            1.27042950       -3.55091132        1.76564281
 C            2.68378254       -1.57134447        1.56010427
 C            2.30737656       -2.81223073        1.06066414
 C            2.54838212        0.84312316        1.22666736
 C            2.65959548       -0.45363264        0.70723303
 C            2.04602162        1.84254076        0.40322812
 C            0.55720167        2.46704518        2.18059197
 C            1.05247864        2.69495407        0.89836167
 C           -1.27590667        1.13316893        2.96270916
 C           -0.81789599        2.28997338        2.32947691
 C           -2.22331909       -1.05688536        2.57679524
 C           -2.16061627        0.29539831        2.27358444
 C           -1.52746293       -3.14584340        1.77352137
 C           -2.37955639       -2.00216556        1.48779338
 C            0.43297635       -4.19751626        0.77559067
 C           -0.97317222       -3.85276042        0.71971717
 C            2.08812762       -2.98051658       -0.36007338
 C            1.01403114       -3.93622119       -0.52994081
 C            2.51609933       -0.63293474       -0.67613128
 C            2.10039762       -1.86759089       -1.18418444
 C            2.25107029        1.74688510       -0.96623095
 C            2.49434995        0.48324016       -1.51992246
 C            1.83831530        2.81333160       -1.75959640
 C            0.27994704        3.44670502        0.01187541
 C            0.72671990        3.62174061       -1.29779381
 C           -1.65773632        2.90182499        1.41032728
 C           -1.06594556        3.64810771        0.31312891
 C           -2.68854933        0.73060736        1.06046083
 C           -2.72703782        2.10214642        0.84666226
 C           -2.48088639       -1.52214868        0.18192661
 C           -2.71642599       -0.15439620       -0.03151956
 C           -1.27383204       -3.44510352       -0.64148711
 C           -0.06151806       -3.58729460       -1.43477700
 C           -2.09983870       -2.34709991       -0.88269886
 C            1.37427800       -1.91118320       -2.37589384
 C            0.17956009       -2.64023899       -2.42403319
 C            2.32954168        0.26516364       -2.88879546
 C            1.60420204       -0.91490846       -3.31648152
 C            1.70049904        2.65358719       -3.19154141
 C            1.93760068        1.35023999       -3.76601894
 C           -0.23732207        3.70422707       -2.38996209
 C            0.34826398        3.05372522       -3.54487993
 C           -2.04207059        3.65757859       -0.76014829
 C           -3.01213122        2.61330945       -0.47373423
 C           -1.57737786        3.47823135       -2.12008653
 C           -2.90356446        0.32432833       -1.33807502
 C           -3.00730321        1.68916289       -1.58179475
 C           -2.21198502        2.27752735       -2.65042491
 C           -2.10932357       -1.83739935       -2.17525057
 C           -0.93738765       -2.05313427       -3.00679416
 C           -2.57462926       -0.48780912       -2.41249529
 C            0.50852753       -0.46577353       -4.16112427
 C            0.71979138        0.93912635       -4.44788424
 C           -0.32056497        1.89108585       -4.10009650
 C           -1.50449754        1.43742258       -3.51330469
 C           -0.77409266       -0.90016588       -3.87121763
 C           -1.79757330        0.07213648       -3.51037692
