   70
C70 / DATE: 7/ 1/2024 / Origin: Program Fullerene / C70 from database
 C            1.30378862       -0.02901952        4.29725342
 C            2.56576017       -0.32720276        3.66291228
 C            2.54726747       -1.72983962        3.28825667
 C            0.46590770       -1.21863457        4.20924260
 C            1.17814355       -2.19835145        3.41921420
 C           -0.84593558       -0.79052018        3.76778037
 C            0.51798309        1.07965602        3.79554568
 C           -0.86463710        0.65672340        3.87282107
 C            0.93574541        1.79139798        2.66949070
 C            2.94646638        0.42743231        2.48759874
 C            2.13233556        1.45285346        2.01223380
 C            3.19981539       -1.85056587        1.99610127
 C            3.50733259       -0.50669613        1.52882804
 C            2.69307722       -2.76829305        1.08993966
 C            0.55745014       -2.76187545        2.30871813
 C            1.36414493       -3.31605495        1.31568679
 C           -1.42315750       -1.38932033        2.64920645
 C           -0.78331914       -2.46848089        2.02681689
 C           -2.46814081       -0.72373300        1.99756595
 C           -1.80196259        1.35110403        3.13179890
 C           -2.76026339        0.59393600        2.35021441
 C            0.00446705        2.61897144        2.03038573
 C           -1.35606431        2.45042165        2.28972823
 C            0.37922824        3.32484928        0.89239556
 C            2.35644184        1.91082403        0.71574882
 C            1.64763701        3.01718853        0.26603523
 C            3.39176450       -0.20781071        0.17326407
 C            3.03757993        1.09487435       -0.19435449
 C            2.81010141       -2.48965987       -0.32859965
 C            3.26967786       -1.24952152       -0.75648717
 C            0.79790952       -3.64931723        0.02072257
 C            1.65619757       -3.06777870       -0.99859185
 C           -1.39442036       -3.08191261        0.93745343
 C           -0.57317010       -3.59901268       -0.14578236
 C           -3.05307401       -1.27149001        0.85265243
 C           -2.56683796       -2.47016924        0.33817117
 C           -3.88383737       -0.48079835        0.05714066
 C           -3.28112419        1.49951341        1.34589588
 C           -2.30939374        2.57024734        1.19459660
 C           -3.87139131        0.96361665        0.21803864
 C           -0.59723207        3.53103051       -0.16784168
 C           -1.84507008        2.91779624       -0.07229342
 C            1.51670996        3.26995104       -1.15879281
 C            0.11574070        3.55227055       -1.43263033
 C            3.13545903        1.47399489       -1.52969601
 C            2.25928820        2.50929956       -2.05034253
 C            3.08038113       -0.93998049       -2.09896335
 C            3.22573946        0.43438058       -2.53126181
 C            1.10188190       -2.38564942       -2.08276823
 C            1.92342391       -1.50560702       -2.78059833
 C           -1.10328894       -3.06281192       -1.38370077
 C           -2.46278556       -2.64818064       -1.10515486
 C           -0.28906269       -2.26821356       -2.19049959
 C           -3.96901273       -0.75315717       -1.36710716
 C           -3.06325035       -1.72693468       -1.94532684
 C           -3.56216233        1.54112081       -1.07662665
 C           -2.46011172        2.38508382       -1.21282941
 C           -3.78472639        0.50497909       -2.07080021
 C           -0.48999369        3.02335839       -2.56163359
 C           -1.82703768        2.46351630       -2.45476127
 C            1.63662859        1.99945774       -3.26395421
 C            2.21026817        0.69387711       -3.53665885
 C            1.32865189       -0.46133757       -3.58949651
 C            0.27383469        2.17582382       -3.46481134
 C           -0.85918642       -1.22977145       -2.94150511
 C           -2.24366420       -1.04044582       -2.93112718
 C           -2.78203883        0.30055916       -3.09847904
 C           -1.90551541        1.33681682       -3.37547428
 C           -0.04516371       -0.26443661       -3.53963591
 C           -0.54819853        1.01565871       -3.77086827
