   70
C70 / DATE: 7/ 1/2024 / Origin: Program Fullerene / C70 from database
 C            1.57483532        0.06394051        4.99163442
 C            0.77632251       -1.14831486        4.94430442
 C            1.52419797       -2.13541726        4.19024450
 C            2.67454086       -0.09377466        4.05478358
 C            2.69410041       -1.47383099        3.63010951
 C            2.54864141        0.93780572        3.04077682
 C            0.74784851        1.15575405        4.51334879
 C            1.44638632        1.80231011        3.41746999
 C           -0.55942930       -0.79030342        4.49680225
 C           -0.58362031        0.64204020        4.25018869
 C           -1.23033110       -1.63046110        3.61940381
 C            0.85764026       -2.84402838        3.11017600
 C           -0.51354609       -2.71109610        2.94824051
 C            2.71304448       -1.75183392        2.20957188
 C            1.70930174       -2.76062121        1.93762614
 C            2.69391839        0.61703351        1.69183173
 C            2.85652429       -0.71564517        1.29020965
 C            2.23674451        1.54098126        0.75006399
 C            0.67871524        2.34930405        2.39697805
 C            1.23774196        2.45046201        1.12318284
 C           -1.24980529        1.13775955        3.13195121
 C           -0.70724558        2.25384478        2.49747056
 C           -2.14792140       -1.05013390        2.65451098
 C           -2.12742527        0.31671076        2.41205274
 C           -1.07351357       -2.84353182        1.61598035
 C           -2.21185423       -1.94894550        1.52476704
 C            1.14368150       -2.77365792        0.66572506
 C           -0.23217646       -2.95700225        0.50877167
 C            2.62767516       -1.02288691       -0.04725633
 C            1.84083444       -2.13792592       -0.35743070
 C            2.47912198        1.29516385       -0.60097384
 C            2.76491341       -0.01300082       -0.99358229
 C            2.04747565        2.22781364       -1.53797197
 C            0.52219693        3.14268270        0.14289229
 C            0.97874257        3.13733588       -1.17302646
 C           -1.47397943        2.89107199        1.53724576
 C           -0.79501113        3.50910855        0.41333238
 C           -2.66960734        0.79569568        1.21592529
 C           -2.60551238        2.16736905        0.99449464
 C           -2.52287808       -1.43867249        0.27571668
 C           -2.85120680       -0.08461278        0.13152778
 C           -0.78466429       -2.72624751       -0.75319443
 C           -2.04796578       -2.12961130       -0.82819259
 C            1.40048849       -2.30702151       -1.66604937
 C            0.06397258       -2.67107531       -1.86224425
 C            2.71913385       -0.37290215       -2.33722328
 C            2.10354945       -1.64245431       -2.66817645
 C            1.83532111        1.82849415       -2.91764220
 C            2.29793937        0.59335970       -3.33788401
 C            0.02765294        3.17095126       -2.27927452
 C            0.48936500        2.23831189       -3.28740716
 C           -1.75837811        3.57904302       -0.66994100
 C           -2.86358966        2.69759534       -0.32492744
 C           -1.32735462        3.25223637       -2.01513430
 C           -3.14514457        0.40856230       -1.15493167
 C           -3.04542734        1.77174040       -1.41592515
 C           -2.20701326        2.21303009       -2.52109019
 C           -2.58119183       -1.80407024       -2.06187387
 C           -3.05907967       -0.44843490       -2.25356458
 C           -0.50227688       -2.64351936       -3.13662623
 C           -1.87744378       -2.20821526       -3.26429307
 C            1.55152186       -1.53329653       -4.00195414
 C            1.54059100       -0.12201966       -4.35182424
 C            0.22698306       -2.05788399       -4.24531334
 C           -0.38808088        1.30191219       -3.83757451
 C           -1.72623316        1.25119115       -3.40808062
 C           -2.43565926        0.05217906       -3.46854373
 C           -1.89953549       -1.08467088       -4.18743281
 C            0.15780312        0.25733493       -4.58691240
 C           -0.58536530       -0.97300941       -4.77583886
