   70
C70 / DATE: 7/ 1/2024 / Origin: Program Fullerene / C70 from database
 C            1.52619711       -0.01610156        4.67118551
 C            0.70060153       -1.20528131        4.58990745
 C            1.17041393       -2.01104117        3.47613459
 C            2.50831677       -0.08833378        3.60570806
 C            2.30410403       -1.32798135        2.88090935
 C            2.44064398        1.15100838        2.85423387
 C            0.67168082        1.12670804        4.39989783
 C            1.25587773        1.85932759        3.30058945
 C           -0.68288591       -0.77624344        4.58315421
 C           -0.68505409        0.64564994        4.25484498
 C           -1.60601217       -1.59790031        3.95651805
 C            0.22819511       -2.59939428        2.63937683
 C           -1.11272557       -2.61919213        3.04069505
 C            0.54979996       -2.81934800        1.29720060
 C            2.41170360       -1.28839816        1.49768712
 C            1.63885107       -2.15434558        0.71954785
 C            2.68052290        1.09992677        1.48326701
 C            2.94335264       -0.14299314        0.90799951
 C            2.14127949        2.10650314        0.67528864
 C            0.42916295        2.38581936        2.32267965
 C            1.04101948        2.82903367        1.15901866
 C           -1.45848219        1.10151037        3.18480083
 C           -0.92051580        2.00527428        2.25610498
 C           -2.74847438       -0.97356386        3.31928182
 C           -2.61006313        0.39194617        2.84869250
 C           -2.15939527       -2.86686609        2.06136950
 C           -3.13427005       -1.79888680        2.18847306
 C           -0.38994387       -3.43062164        0.47949415
 C           -1.79945583       -3.27433162        0.78794929
 C           -0.25837140       -3.32663444       -0.95857674
 C            1.82819979       -2.16462746       -0.67076327
 C            0.90055428       -2.79425935       -1.51182302
 C            3.26782437       -0.19284451       -0.43583208
 C            2.79924467       -1.32288450       -1.21525394
 C            2.44365585        2.10414696       -0.69369470
 C            3.08945906        1.00158336       -1.24291986
 C            1.82377631        3.00692494       -1.55197383
 C            0.26437826        3.57274468        0.28921982
 C            0.75238681        3.83398809       -1.04477410
 C           -1.63727676        2.27902510        1.08374100
 C           -1.14169021        3.23282695        0.20118304
 C           -3.10329924        0.43778412        1.48232791
 C           -3.36100248       -0.92355719        1.05037500
 C           -2.51453237        1.31842466        0.59039238
 C           -2.39928650       -2.60609277       -0.35554054
 C           -1.54103087       -2.88395214       -1.48727420
 C           -2.91746322       -1.32437412       -0.20603768
 C           -1.52779866       -2.01063831       -2.56510162
 C            0.84696454       -2.45575976       -2.86594713
 C           -0.45277861       -2.14647096       -3.43632796
 C            2.69162990       -0.87929920       -2.59199746
 C            2.75933485        0.57710340       -2.59517459
 C            1.80486966       -1.52336799       -3.43418752
 C            1.45087920        2.57806637       -2.89305770
 C            1.85422550        1.32257592       -3.35288553
 C           -0.37352687        3.71352009       -1.95260448
 C           -1.47257693        3.12460945       -1.21013937
 C            0.08887849        3.03749947       -3.14587650
 C           -2.47102146        0.98596567       -0.76440468
 C           -2.58452842       -0.35537103       -1.15275454
 C           -2.13486256       -0.75554021       -2.41357659
 C           -2.05763699        1.95183234       -1.68462212
 C           -0.79181722        2.18456394       -3.79096424
 C           -2.01007243        0.20774773       -3.41187993
 C           -1.89022292        1.60204644       -3.02524961
 C           -0.26324633       -1.19131678       -4.50494765
 C            1.12279562       -0.75082835       -4.45752375
 C            1.12194283        0.69833544       -4.36330977
 C           -1.10558312       -0.01666202       -4.52584057
 C           -0.23581930        1.14128245       -4.62641229
