   70
C70 / DATE: 7/ 1/2024 / Origin: Program Fullerene / C70 from database
 C            1.21220870       -0.15906148        4.26453681
 C            2.49058018       -0.46663094        3.66531173
 C            2.38837093       -1.77183537        3.03205186
 C            0.36424367       -1.33035837        4.11944851
 C            1.03760340       -2.26277544        3.24016446
 C           -0.95843344       -0.87439973        3.74411669
 C            0.47179851        0.98768416        3.76871180
 C           -0.91035446        0.57570081        3.61212454
 C            1.03740541        1.81725942        2.80365485
 C            3.02172778        0.45030990        2.68143551
 C            2.39079279        1.66788832        2.45226138
 C            2.87847283       -1.64662008        1.66797152
 C            3.44586311       -0.32202846        1.52659753
 C            2.10655900       -2.15991596        0.63603239
 C            0.33831379       -2.75979463        2.14772950
 C            1.03081405       -2.98143415        0.95655425
 C           -1.68344394       -1.60120477        2.80459987
 C           -1.05590063       -2.64814897        2.11829141
 C           -2.78742267       -0.97632081        2.23233430
 C           -1.69613359        1.18147119        2.63598461
 C           -2.79857930        0.47453897        2.15448823
 C            0.18321662        2.58314808        2.00289441
 C           -1.16721812        2.23249232        1.87969607
 C            0.71699066        3.56619484        1.17400991
 C            2.90099424        2.41849979        1.40063212
 C            2.13238654        3.52982274        0.88539377
 C            3.42055094        0.30124823        0.28355330
 C            3.46217333        1.69725988        0.26845458
 C            2.15844455       -1.56520414       -0.62680209
 C            2.88433186       -0.38062178       -0.81487265
 C            1.39639807       -2.10786581       -1.67198418
 C            0.40697888       -3.68090831       -0.06264986
 C            0.62211529       -3.24587410       -1.43192764
 C           -1.75474305       -3.32734421        1.12349307
 C           -0.99730141       -4.00879532        0.08860997
 C           -3.36566816       -1.49335079        1.00303036
 C           -2.89015157       -2.68288721        0.48316584
 C           -3.41037469        0.84357382        0.88846146
 C           -3.57910002       -0.36956581        0.10792392
 C           -1.93092067        2.78329406        0.85061444
 C           -2.99475748        1.99803132        0.25270173
 C            0.03544039        3.90622193       -0.06209771
 C           -1.27993666        3.51423858       -0.22266197
 C            2.29317893        3.55556122       -0.56008456
 C            3.12491845        2.42739318       -0.94154709
 C            0.97127558        3.68631955       -1.15065912
 C            2.83133270        0.26569919       -2.04490161
 C            2.79763470        1.71765861       -2.08484093
 C            1.20735428       -1.38804911       -2.85596177
 C            1.92093713       -0.21341775       -3.06761713
 C            0.08215381       -1.63448130       -3.64154888
 C           -0.62573325       -3.43248414       -2.15625153
 C           -1.65102499       -3.76158428       -1.18296195
 C           -2.71680921       -2.80266191       -0.95371754
 C           -0.94776134       -2.53092351       -3.15610721
 C           -3.09755995       -0.42432775       -1.20075787
 C           -2.77920756       -1.67004552       -1.76572383
 C           -2.15881112       -1.73542619       -3.01116260
 C           -2.76753605        1.97319362       -1.18173187
 C           -1.68961052        2.90483196       -1.47670422
 C           -2.82574761        0.77203761       -1.88457015
 C            0.61420128        2.85173700       -2.20892400
 C            1.60814281        2.09384497       -2.83035816
 C            1.24294960        0.94674979       -3.63524632
 C           -0.73626732        2.55454086       -2.43283587
 C           -0.60215246       -0.51320595       -4.25935160
 C           -1.97555412       -0.52603139       -3.78146530
 C           -2.23169110        0.74266746       -3.14153814
 C           -0.06882428        0.82048749       -4.05770109
 C           -1.09412409        1.61398457       -3.39977027
