   70
C70 / DATE: 7/ 1/2024 / Origin: Program Fullerene / C70 from database
 C            1.60434395        0.07116240        4.72747471
 C            0.78244083       -1.11057285        4.55544185
 C            1.46011367       -1.99330877        3.62509109
 C            2.69409487       -0.00522048        3.76785214
 C            2.56862464       -1.24732288        3.04645721
 C            2.69173349        1.21711145        3.00518082
 C            0.79303979        1.22224022        4.37366333
 C            1.56691734        2.02115597        3.45795873
 C           -0.55844687       -0.67487834        4.22675477
 C           -0.49118526        0.74593050        3.91540768
 C           -1.31589637       -1.49379546        3.41017408
 C            0.69552698       -2.78955716        2.77689461
 C           -0.69619439       -2.67340252        2.81514013
 C            1.30267503       -3.23959099        1.60887098
 C            2.71959996       -1.25469453        1.66211423
 C            2.35755757       -2.42704294        1.01771642
 C            2.93060839        1.16797339        1.63204549
 C            2.70438976       -0.04127112        0.94796733
 C            2.73732382        2.36791968        0.95791362
 C            0.90643653        2.74870530        2.48289537
 C            1.74202275        3.27094570        1.51157532
 C           -0.96807816        1.20811200        2.68653760
 C           -0.38346151        2.33758368        2.09017344
 C           -2.12932481       -0.88176647        2.37854292
 C           -1.82422564        0.39877182        1.93553643
 C           -1.48555535       -3.00871041        1.64024839
 C           -2.41266446       -1.91091277        1.40263018
 C            0.49893040       -3.77324393        0.52196621
 C           -0.88916486       -3.62355407        0.54427171
 C            2.16041785       -2.42687567       -0.41244455
 C            1.24195416       -3.51040737       -0.70460879
 C            2.28227376       -0.02386658       -0.40054656
 C            2.01691619       -1.21598386       -1.07658845
 C            2.54074037        2.36163126       -0.47362170
 C            2.14110505        1.18375539       -1.08763419
 C            1.15668273        4.00795382        0.42655351
 C            1.83243566        3.58262189       -0.78674014
 C           -0.92620015        2.82521031        0.88940114
 C           -0.25877216        3.84011996        0.20135559
 C           -2.13809559        0.75815247        0.62815078
 C           -1.88198634        2.06142040        0.20904359
 C           -2.68557327       -1.54959285        0.09066124
 C           -2.57583360       -0.20973697       -0.29091447
 C           -1.58439639       -3.59933415       -0.66161571
 C           -2.55518725       -2.53520102       -0.87837757
 C            0.56703208       -3.49321355       -1.91048108
 C           -0.85214818       -3.78475630       -1.89942618
 C            1.35345071       -1.18833929       -2.30667675
 C            0.76434417       -2.35915790       -2.79831756
 C            1.38182314        1.23254721       -2.26724198
 C            1.06987675        0.03389804       -2.92442149
 C            0.83043014        3.53442556       -1.82192669
 C           -0.43277059        3.95587567       -1.23015956
 C            0.80983894        2.45063656       -2.68882893
 C           -2.35998811        2.48462322       -1.03078660
 C           -1.59841068        3.46531682       -1.79265658
 C           -2.77876834        0.14110261       -1.62869499
 C           -2.86810847        1.49091442       -1.96425432
 C           -2.51338967       -2.16152208       -2.27902200
 C           -1.47912377       -2.96146378       -2.91597725
 C           -0.42315739       -2.26690193       -3.63012992
 C           -2.61104527       -0.82122004       -2.63619772
 C            0.21946772        0.04077076       -4.03073019
 C           -0.73356453       -1.03877765       -4.18281783
 C           -2.01761573       -0.45356928       -3.84341459
 C           -0.24026972        2.43846199       -3.59758014
 C           -1.51567623        2.97372576       -3.15511326
 C           -2.49697381        1.91945705       -3.30013096
 C           -0.51225213        1.24507093       -4.35677467
 C           -1.93166415        0.94346176       -4.20480931
