   70
C70 / DATE: 7/ 1/2024 / Origin: Program Fullerene / C70 from database
 C            1.54988431       -0.10231148        4.56323537
 C            0.73348044       -1.27103400        4.29674995
 C            1.32926557       -1.99726446        3.18873384
 C            2.62887019       -0.08789808        3.59228075
 C            2.51250611       -1.26860298        2.76461844
 C            2.61306853        1.19828280        2.93256324
 C            0.72604817        1.07071632        4.32406755
 C            1.39634366        1.88861906        3.34128790
 C           -0.63935285       -0.82765761        4.16607337
 C           -0.61578227        0.62178958        4.03231467
 C           -1.47533004       -1.54898399        3.32757145
 C            0.49408182       -2.53691550        2.21318322
 C           -0.88800729       -2.51595263        2.40972512
 C            0.98508094       -2.70466899        0.91867269
 C            2.75393381       -1.14410491        1.40322704
 C            2.17054922       -2.06779822        0.53999822
 C            2.97943513        1.26388464        1.59213859
 C            3.21085180        0.07365957        0.88849640
 C            2.58295232        2.39761812        0.88922913
 C            0.64538318        2.52997577        2.36114964
 C            1.35158453        3.05715821        1.29010451
 C           -1.31461203        1.20629607        2.97919865
 C           -0.70448027        2.19129712        2.17912010
 C           -2.50573881       -0.83812537        2.59257156
 C           -2.45350976        0.55047007        2.51215488
 C           -1.77335146       -2.62124455        1.25837292
 C           -2.79362649       -1.59610674        1.38533770
 C            0.12946851       -3.18622930       -0.06688844
 C           -1.22764685       -2.87263154        0.00993022
 C            0.67007272       -3.55477152       -1.28937192
 C            2.58011573       -2.10647526       -0.79275937
 C            1.95658317       -2.99476134       -1.66671551
 C            3.53277064        0.13907200       -0.46481167
 C            3.26840030       -1.01179406       -1.31606928
 C            2.65628694        2.41988314       -0.56084519
 C            3.18810443        1.33028707       -1.22591528
 C            0.64695453        3.45432128        0.09142741
 C            1.43230286        3.02602219       -1.05716623
 C           -1.41806131        2.73226072        1.09900122
 C           -0.73342641        3.33821884        0.03190827
 C           -3.24021751        1.17212921        1.55556650
 C           -2.77011687        2.41187150        0.97577024
 C           -3.21987112       -0.90188179        0.25676502
 C           -3.75937423        0.36486170        0.46270752
 C           -1.88755279       -2.38373419       -1.11893129
 C           -2.69363697       -1.24453414       -0.99868234
 C           -0.19087841       -3.52501592       -2.45443826
 C           -1.40921830       -2.74089338       -2.37838962
 C            1.89663024       -2.66006176       -3.07886497
 C            0.58940986       -3.04245488       -3.57928745
 C            2.91564842       -0.50119232       -2.63442515
 C            2.56579788        0.89495607       -2.46195345
 C            2.13907947       -1.28508656       -3.46998330
 C            0.77329338        2.48368999       -2.16146018
 C            1.27568901        1.32585464       -2.77016196
 C           -1.30531147        3.38744618       -1.23787053
 C           -0.55874944        2.84031785       -2.36032998
 C           -3.44651527        2.55390442       -0.30011819
 C           -3.97114330        1.24515061       -0.66298360
 C           -2.69953463        3.05596527       -1.42843754
 C           -2.73012803       -0.33201778       -2.06327871
 C           -1.43949938        1.92565018       -3.06155427
 C           -3.40035044        0.87813108       -1.93806577
 C           -2.76883407        2.06195560       -2.48705266
 C           -1.33540081       -1.71504639       -3.40364598
 C           -0.05679652       -1.84244928       -4.07627391
 C            0.88266652       -0.74246762       -3.96367783
 C            0.41127164        0.47124388       -3.46567903
 C           -1.78123011       -0.44552817       -3.07336617
 C           -0.96658051        0.65473600       -3.35579827
