   70
C70 / DATE: 7/ 1/2024 / Origin: Program Fullerene / C70 from database
 C            1.57617803        0.07134038        4.68111890
 C            0.78660673       -1.13307456        4.49980762
 C            1.45754839       -1.96784089        3.51638515
 C            2.69886736        0.00261025        3.76460882
 C            2.72551320       -1.32982684        3.19430103
 C            2.61860786        1.13656153        2.85880309
 C            0.75268196        1.19706051        4.28298679
 C            1.43711183        1.90323838        3.21381909
 C           -0.58436949       -0.73167820        4.24377580
 C           -0.58897068        0.70634474        4.02217577
 C           -1.34960463       -1.53080181        3.41209726
 C            0.69518550       -2.55355935        2.50202375
 C           -0.68887055       -2.57331010        2.64005558
 C            1.26549017       -2.78215755        1.24466860
 C            3.22838394       -1.47304577        1.91438152
 C            2.59676734       -2.42613386        1.02758494
 C            2.91093240        0.93666747        1.51103882
 C            3.47620386       -0.27701156        1.11988935
 C            2.27980004        1.72997646        0.55057929
 C            0.66692884        2.43854670        2.19124265
 C            1.23510734        2.58193412        0.92789194
 C           -1.26755284        1.23168562        2.92441719
 C           -0.71885664        2.34293028        2.28715000
 C           -2.31568415       -0.90194804        2.53032563
 C           -2.19427175        0.44525122        2.22978520
 C           -1.51736999       -2.83549190        1.48332357
 C           -2.57146498       -1.83063342        1.45317901
 C            0.46270706       -3.13764922        0.14940465
 C           -0.93019241       -3.21351690        0.28297574
 C            1.04302728       -3.22694426       -1.11834142
 C            3.03270822       -2.07841935       -0.30995359
 C            3.41845692       -0.67637014       -0.27787980
 C            2.29563469       -2.54241651       -1.38233195
 C            2.51355159        1.48318313       -0.80128765
 C            2.87854106        0.19842782       -1.21463886
 C            2.06516870        2.40670559       -1.73493405
 C            0.51768273        3.27951500       -0.04765720
 C            0.98627846        3.30203831       -1.36125163
 C           -1.48495088        2.99444734        1.33556273
 C           -0.80701865        3.62491455        0.21736969
 C           -2.73313246        0.92449607        1.03439170
 C           -2.63111517        2.29075280        0.79471764
 C           -2.98710379       -1.35419087        0.21526062
 C           -2.99359888        0.03291953       -0.02626812
 C           -1.74087609       -3.16370181       -0.85072200
 C           -2.86325402       -2.23918736       -0.85024444
 C            0.22057612       -3.08270270       -2.30548335
 C           -1.15437568       -3.14948806       -2.17925700
 C            2.07868288       -1.66492451       -2.51918586
 C            2.39915990       -0.31449132       -2.42604299
 C            0.82085063       -2.04771921       -3.13999530
 C            1.82952398        1.96725024       -3.09403165
 C            1.84931681        0.54586975       -3.36750769
 C            0.04295466        3.35400937       -2.47333591
 C            0.54199096        2.48818178       -3.52034821
 C           -1.76298152        3.68720185       -0.87211785
 C           -2.87113460        2.80820625       -0.53144603
 C           -1.31741871        3.35438277       -2.20999184
 C           -3.21078775        0.51987470       -1.33282350
 C           -3.04121108        1.86954587       -1.61162309
 C           -2.13989116        2.25022440       -2.68984884
 C           -3.05280492       -1.76553928       -2.19862042
 C           -1.97756762       -2.30074703       -3.01874450
 C           -3.11278215       -0.34149736       -2.41811317
 C            0.02668231       -1.06372022       -3.73437345
 C            0.58027013        0.18973416       -3.98585951
 C           -0.27484784        1.36738247       -3.95163663
 C           -1.58729160        1.24858986       -3.49416610
 C           -1.35996003       -1.19009363       -3.72227243
 C           -2.18036715       -0.01216769       -3.48476312
