   70
C70 / DATE: 7/ 1/2024 / Origin: Program Fullerene / C70 from database
 C            1.37722627       -0.11519840        4.21539919
 C            2.40845500       -0.23020651        3.20005250
 C            2.28730117       -1.54975456        2.59820828
 C            0.52853580       -1.29242370        4.12087297
 C            1.02204302       -2.11239701        3.02612199
 C           -0.85290803       -0.85082204        4.10003416
 C            0.52389862        1.05583151        4.22182693
 C           -0.85873106        0.60121653        4.20154810
 C            0.89826156        2.16139244        3.46982455
 C            2.71186125        0.86143393        2.38682594
 C            2.03322982        2.06910491        2.55878179
 C            3.37052374        0.62636756        1.18246650
 C            2.68058329       -1.72113158        1.27997715
 C            3.47390512       -0.73768339        0.69638935
 C            1.93693504       -2.56445347        0.45645980
 C            0.13186997       -2.58082417        2.06319133
 C            0.59264159       -2.82169138        0.76565363
 C           -1.74027283       -1.48560629        3.24160257
 C           -1.23678127       -2.47047742        2.29322635
 C           -2.77953067       -0.71746022        2.57305503
 C           -1.82182217        1.34072603        3.52153320
 C           -2.79816305        0.66475834        2.67995198
 C           -0.11942858        2.98377672        2.83541694
 C           -1.45106146        2.58266272        2.86169816
 C            1.73803111        2.89303490        1.39604277
 C            0.44869277        3.52812151        1.61260244
 C            3.08941882        1.47420924        0.03249888
 C            2.09075666        2.43372315        0.12803256
 C            3.59302039       -0.67834791       -0.75044761
 C            3.18536141        0.65459025       -1.16233706
 C            2.41651961       -2.81118889       -0.82469189
 C            3.16839381       -1.76487188       -1.49635439
 C            1.54651737       -3.42633622       -1.80417740
 C           -0.32348288       -3.14774575       -0.24715330
 C            0.13440510       -3.52129637       -1.50802888
 C           -2.14970037       -2.49396767        1.16881121
 C           -3.01356357       -1.32932056        1.27783068
 C           -1.67733453       -2.84573809       -0.08729633
 C           -3.21065968       -0.53675670        0.14856679
 C           -2.98845015        1.46301889        1.48021738
 C           -2.26971094        2.71127217        1.66614397
 C           -2.99486743        0.84351299        0.22859150
 C           -0.36975951        3.77873412        0.52280903
 C           -1.76705061        3.36624583        0.55360530
 C            1.24176397        2.65949963       -0.95993666
 C            0.13313364        3.49282678       -0.80768788
 C            2.23480521        0.80067252       -2.16738252
 C            1.37078539        1.90252986       -2.13153623
 C            2.51617007       -1.52440307       -2.76875360
 C            1.69198905       -2.68729290       -3.04823302
 C            2.01176573       -0.25829064       -3.06011621
 C           -0.59222185       -3.07798185       -2.68708882
 C            0.36705616       -2.48331184       -3.60728773
 C           -2.41324706       -2.41700727       -1.18894002
 C           -3.15370839       -1.16944449       -1.08698925
 C           -1.84302226       -2.49724111       -2.52224618
 C           -2.87810803       -0.39481563       -2.27897320
 C           -2.16953087       -1.25975225       -3.21506667
 C           -2.61617381        1.57195535       -0.90910597
 C           -2.09537847        2.85884011       -0.76652336
 C           -1.02890618        3.28744829       -1.65081931
 C           -2.51746743        0.94206343       -2.15331539
 C            0.45972424        2.10678727       -3.16589099
 C           -0.86068323        2.61594583       -2.84616980
 C           -1.79420138        1.55578121       -3.17675794
 C            1.01772539       -0.15841675       -4.02914954
 C            0.08133324       -1.25940649       -4.20196259
 C           -1.26015653       -0.70674141       -4.10719986
 C            0.27428056        1.07409082       -4.16319265
 C           -1.14283669        0.73763105       -4.18505865
