   70
C70 / DATE: 7/ 1/2024 / Origin: Program Fullerene / C70 from database
 C            1.56976162       -0.05855545        4.78122177
 C            0.76270837       -1.26314102        4.73619998
 C            1.41057603       -2.20575127        3.83767253
 C            2.63206140       -0.20444082        3.80385217
 C            2.49096500       -1.50089025        3.16840097
 C            2.61566482        0.97054908        2.95301479
 C            0.73403636        1.04832250        4.35192419
 C            1.41898031        1.73163795        3.26740443
 C           -0.61128406       -0.87178127        4.46614800
 C           -0.59999198        0.53487166        4.09989526
 C           -1.41527690       -1.74529890        3.74940369
 C            0.61315163       -3.06841927        3.10189599
 C           -0.83011184       -2.98281389        3.25866534
 C            0.88997887       -3.25811365        1.68642573
 C            2.60623268       -1.55804155        1.78194429
 C            1.83001705       -2.45938600        1.04435523
 C            2.94043866        0.81594605        1.61338255
 C            3.18169222       -0.47228466        1.12454939
 C            2.50255038        1.79400282        0.72460555
 C            0.65830367        2.22259091        2.20843281
 C            1.28100160        2.42651340        0.97117892
 C           -1.24807700        0.95173283        2.94177783
 C           -0.72467715        2.04019766        2.24465636
 C           -2.27469326       -1.22090790        2.69895783
 C           -2.15952694        0.10555535        2.29972564
 C           -1.43495904       -3.28209556        1.97570217
 C           -0.36973030       -3.51930608        1.01688944
 C           -2.39987897       -2.23801556        1.67407277
 C           -0.55293290       -3.03979997       -0.27333757
 C            1.75667099       -2.32043085       -0.34482568
 C            0.54681625       -2.57732790       -1.00253873
 C            3.50544751       -0.62253535       -0.21718724
 C            2.74750573       -1.58901438       -0.99222079
 C            3.03507505        1.79354152       -0.55442419
 C            3.65602297        0.57120345       -1.02674529
 C            2.26614496        2.34958278       -1.64777817
 C            0.53452527        2.96486075       -0.08565176
 C            1.04701506        2.97174494       -1.39077557
 C           -1.49136727        2.60229859        1.23948021
 C           -0.81412027        3.24176454        0.12958831
 C           -2.66270246        0.47454720        1.04994475
 C           -2.57157573        1.80878108        0.68343345
 C           -2.51385921       -1.83252329        0.35030856
 C           -1.81517656       -2.56019820       -0.60736849
 C           -2.84456101       -0.50370327        0.06334770
 C           -2.07534376       -2.29439394       -1.93697365
 C            0.32502432       -2.07431013       -2.29080406
 C           -0.94468485       -2.22739985       -2.84159140
 C            2.46840587       -1.00284299       -2.29178356
 C            3.12973916        0.28173021       -2.34709326
 C            2.35395167        1.42577247       -2.77059659
 C            1.18822330       -1.10849346       -2.81569289
 C            1.20984201        1.21949780       -3.52794219
 C            0.68850893       -0.08077373       -3.63133803
 C            0.18851522        3.16625224       -2.47702855
 C            0.35120442        2.30739248       -3.63779834
 C           -1.74021272        3.22598931       -0.98303432
 C           -2.72166957        2.18566371       -0.70586629
 C           -1.23917067        3.34690863       -2.26570078
 C           -3.01822113       -0.14051789       -1.28175020
 C           -2.90777806       -1.15068692       -2.24133776
 C           -2.97139656        1.21029861       -1.66500700
 C           -1.34642344       -1.39406602       -3.95935452
 C           -0.48495821       -0.29903663       -4.35192070
 C           -2.64772897       -0.82782794       -3.62845391
 C           -0.94223606        2.14929404       -4.26683955
 C           -1.93814179        2.66720521       -3.34323937
 C           -2.82942227        1.57071159       -3.00780767
 C           -1.35660647        0.82033261       -4.66138906
 C           -2.63826201        0.55783182       -4.02526148
