   70
C70 / DATE: 7/ 1/2024 / Origin: Program Fullerene / C70 from database
 C            1.34781752        0.11147669        5.06884777
 C            0.54629691       -1.09701987        5.04854281
 C            1.32233621       -2.13794304        4.39942599
 C            2.55376382       -0.14728714        4.30106815
 C            2.54602364       -1.53590285        3.90016231
 C            2.63014345        0.85521900        3.26154152
 C            0.59987502        1.15059177        4.37819353
 C            1.44834215        1.68875795        3.34068561
 C           -0.75069987       -0.75702567        4.49389564
 C           -0.68064090        0.60515144        3.98631686
 C           -1.41283326       -1.70200496        3.72826651
 C            0.71184366       -2.87576596        3.30663722
 C           -0.66219953       -2.81348107        3.14276507
 C            2.64492577       -1.84142968        2.48457993
 C            1.55657445       -2.73223937        2.13069842
 C            3.05111630        0.49686711        1.98821864
 C            2.98405641       -0.84517306        1.57923514
 C            2.89599555        1.46045604        1.00025424
 C            0.87576664        2.07452855        2.13426038
 C            1.73536888        2.24776823        1.05074985
 C           -1.16300366        0.87730216        2.70421424
 C           -0.46196563        1.75436621        1.86682135
 C           -2.31862874       -1.23320598        2.69960292
 C           -2.13773308        0.04046494        2.15749054
 C           -1.20936402       -3.03634076        1.81822405
 C           -2.48499977       -2.35001704        1.79748955
 C            0.96893454       -2.60611081        0.86638618
 C           -0.37994120       -2.93757720        0.69744357
 C            2.75495779       -1.10612218        0.22879816
 C            1.62680311       -1.86124617       -0.12232184
 C            3.44555337        1.15818037       -0.23363483
 C            3.28994048       -0.20842801       -0.68488201
 C            3.17124288        2.03230473       -1.34844567
 C            1.20692123        2.78328911       -0.12412957
 C            2.03219761        2.91310156       -1.23845860
 C           -0.96151513        2.02571506        0.59213215
 C           -0.18005762        2.77417897       -0.28970088
 C           -2.62594385        0.29111641        0.87290115
 C           -2.05736299        1.30622751        0.10138365
 C           -3.04881569       -2.09644883        0.56788386
 C           -3.34249525       -0.71617604        0.23313985
 C           -0.98250074       -2.75781379       -0.54987163
 C           -2.37044866       -2.62326757       -0.59432161
 C            1.01151201       -1.67682768       -1.36864227
 C           -0.22235305       -2.28278183       -1.62264798
 C            2.76192254       -0.16034487       -2.03076345
 C            2.95192419        1.19080846       -2.51089728
 C            1.55849282       -0.79010038       -2.30469393
 C            1.43971122        2.98200785       -2.55776043
 C            1.88352404        1.79410800       -3.27827803
 C           -0.74090644        3.20573921       -1.48853944
 C            0.10795688        3.35095701       -2.66375954
 C           -2.48452669        1.50656941       -1.21917074
 C           -1.99561752        2.61180378       -1.91629537
 C           -3.48195698       -0.68001532       -1.20896805
 C           -2.97590123       -1.95099221       -1.72002227
 C           -3.16882333        0.48477504       -1.89867564
 C           -0.83959598       -2.09499050       -2.86423944
 C           -2.28768057       -1.94419411       -2.91802187
 C            0.78804763       -0.34793382       -3.38348657
 C            0.91703914        0.97365547       -3.85069030
 C           -0.26727701       -1.14698218       -3.80619455
 C           -0.63894253        2.84774798       -3.80153043
 C           -2.00332116        2.61821293       -3.36667096
 C           -0.17825034        1.61961260       -4.42108378
 C           -3.07349608        0.37849324       -3.28690983
 C           -2.58135827       -0.86813217       -3.84220940
 C           -1.36060466       -0.56096542       -4.55837992
 C           -2.47966417        1.44382249       -4.06254445
 C           -1.35550223        0.86691022       -4.79141427
