   70
C70 / DATE: 7/ 1/2024 / Origin: Program Fullerene / C70 from database
 C            1.19759712       -0.10739786        4.38833848
 C            2.42829965       -0.34010939        3.67078739
 C            2.37606201       -1.69544316        3.15062174
 C            0.35776925       -1.28571895        4.21482571
 C            1.00375014       -2.13894116        3.24482437
 C           -0.98200342       -0.82014040        3.93863991
 C            0.39064356        1.04262464        4.03218081
 C           -0.98593132        0.61669285        4.16635651
 C            0.73966600        1.83708439        2.93943778
 C            2.75850970        0.53024773        2.56134013
 C            1.88541301        1.53912908        2.18086624
 C            2.98615720       -1.67833137        1.83844663
 C            3.33603743       -0.29928963        1.52437781
 C            2.42417124       -2.44608319        0.82627406
 C            0.34192542       -2.45836017        2.06419441
 C            1.09947174       -2.88469554        0.97104249
 C           -1.67529522       -1.32788855        2.84265932
 C           -1.00049939       -2.08908214        1.87598192
 C           -2.86592374       -0.70020997        2.49882694
 C           -1.97289925        1.37594854        3.55959357
 C           -3.07087831        0.67745428        2.91582990
 C           -0.22596911        2.70837219        2.41892515
 C           -1.57762765        2.46874175        2.68174100
 C            0.08747776        3.48341993        1.30504842
 C            2.02771097        2.07890734        0.90850641
 C            1.34366075        3.24872572        0.62485702
 C            3.25284440        0.11074046        0.19249330
 C            2.57029542        1.29561582       -0.12466072
 C            2.92652641       -2.22423613       -0.44901517
 C            3.37396572       -0.88016392       -0.77721631
 C            2.24675942       -2.77192552       -1.60648860
 C            0.43852589       -3.46398893       -0.10501077
 C            1.03113750       -3.41628813       -1.43195119
 C           -1.64432043       -2.42204572        0.67443431
 C           -0.99041194       -3.24734922       -0.24111690
 C           -3.37285830       -0.82055286        1.14919009
 C           -2.79468753       -1.73071238        0.27630300
 C           -3.46699723        1.44377618        1.74640137
 C           -2.52254580        2.51869010        1.57509242
 C           -3.64609657        0.52133022        0.65535614
 C           -0.92302371        3.64164936        0.27181181
 C           -2.03380796        2.81034733        0.30684825
 C            1.17973959        3.66701826       -0.74811758
 C           -0.24387369        3.87493635       -0.97703595
 C            2.30472659        1.60823927       -1.47028540
 C            1.66062240        2.79936854       -1.79961790
 C            2.98276015       -0.60525073       -2.14301516
 C            2.41737686       -1.82834568       -2.69854470
 C            2.41348282        0.62234796       -2.45538889
 C            1.45070967       -1.74095767       -3.69160282
 C           -0.03862178       -3.21861084       -2.39685019
 C           -1.29053361       -3.13742278       -1.66053230
 C            0.16906833       -2.40698627       -3.50927622
 C           -3.03558620       -1.52695840       -1.07964263
 C           -2.28002285       -2.25966098       -2.07616676
 C           -3.18670181        0.86054690       -0.61220460
 C           -2.27661806        1.92384605       -0.76511305
 C           -3.20421773       -0.16123408       -1.55170016
 C           -0.61590829        3.07614927       -2.12009844
 C            0.62169006        2.77377268       -2.81197769
 C           -1.57076181        2.06885045       -1.97775150
 C            1.68497400        0.74805114       -3.63849796
 C            1.19805608       -0.44932252       -4.30269904
 C            0.62198915        1.73297258       -3.71916023
 C           -0.87769173       -1.49531478       -3.94779189
 C           -2.03102915       -1.35547550       -3.18782512
 C           -2.46365542       -0.02363455       -2.78360519
 C           -1.61282144        1.06074148       -2.94786975
 C           -0.23937155       -0.30075999       -4.46809902
 C           -0.61038143        0.99255024       -3.91652498
