   70
C70 / DATE: 7/ 1/2024 / Origin: Program Fullerene / C70 from database
 C            1.68720780       -0.05390938        4.57276798
 C            0.86799852       -1.24760794        4.53281804
 C            1.21508974       -1.99856778        3.33812115
 C            2.61192576       -0.12557406        3.46060135
 C            2.34481380       -1.33492013        2.70938716
 C            2.51453634        1.12463387        2.74909298
 C            0.81049686        1.08460697        4.33822792
 C            1.27286760        1.76062439        3.14920251
 C           -0.50447569       -0.82236870        4.68860655
 C           -0.54521386        0.59929165        4.36044449
 C           -1.48824971       -1.63200668        4.14846186
 C            0.18614710       -2.48809477        2.53781316
 C           -1.11861543       -2.52061935        3.04930140
 C            0.38164458       -2.58620442        1.15645631
 C            2.39294814       -1.25522749        1.32108755
 C            1.53708838       -2.04829702        0.56826519
 C            2.78101273        1.11813487        1.39771598
 C            2.91718865       -0.10504636        0.73177268
 C            2.24819519        2.16401340        0.67340565
 C            0.36429658        2.11394652        2.14471119
 C            0.90243834        2.46501704        0.89775422
 C           -1.44720048        1.03673689        3.39226952
 C           -0.97248797        1.68249330        2.22690908
 C           -2.73572439       -0.99504153        3.77868442
 C           -2.68541433        0.40038032        3.38240718
 C           -2.24328083       -2.57078731        2.12647661
 C           -3.29886007       -1.74016184        2.67052914
 C           -0.70448221       -2.92512642        0.34979687
 C           -1.97918323       -2.55198111        0.76151535
 C           -0.49548984       -3.15626618       -0.99880607
 C            1.65916156       -2.03524115       -0.82154078
 C            0.80769416       -2.85572637       -1.55208530
 C            3.05634940       -0.05773447       -0.65909103
 C            2.34899580       -0.98168077       -1.45001583
 C            2.78831202        2.35373200       -0.57955372
 C            3.38440878        1.18553537       -1.19562172
 C            1.98901213        2.99242657       -1.59437593
 C            0.05513768        2.65436855       -0.19878094
 C            0.60315096        2.97438131       -1.45015315
 C           -1.81694203        1.86071805        1.11701171
 C           -1.27546207        2.23812675       -0.11584490
 C           -3.56334275        0.55106093        2.25004815
 C           -3.93907964       -0.78408731        1.79861687
 C           -3.08437416        1.27720964        1.09925131
 C           -2.78733654       -1.81310452       -0.11829443
 C           -3.65553264       -0.84914596        0.38016396
 C           -3.47015106        0.50845414       -0.06868718
 C           -1.47384681       -2.62037077       -1.92125297
 C           -2.35721363       -1.66500527       -1.43788323
 C            0.61742581       -2.62143545       -2.96393636
 C           -0.80707643       -2.40582511       -3.18368405
 C            2.24880225       -0.79500201       -2.84652154
 C            1.31886692       -1.52337214       -3.58192393
 C            3.34335212        1.38824365       -2.62228257
 C            2.60598899        2.62176644       -2.85817979
 C            2.74878763        0.36206609       -3.44147775
 C            1.77090206        2.41917512       -4.02077738
 C            1.94079737        1.03806728       -4.44591022
 C           -0.21253409        2.93776577       -2.58155361
 C            0.35243914        2.67234387       -3.89736321
 C           -1.94903357        1.84532840       -1.27576679
 C           -2.74205296        0.71270711       -1.22398053
 C           -2.37794758       -0.38189581       -2.01405639
 C           -1.46281608        2.21694623       -2.51274071
 C           -0.95563273       -1.12415386       -3.83679623
 C            0.34898235       -0.80718675       -4.39454990
 C            0.62798803        0.50089001       -4.76202513
 C           -0.35167490        1.52872584       -4.45714588
 C           -1.70044039       -0.12102591       -3.21604256
 C           -1.45128318        1.20988380       -3.56099378
