   70
C70 / DATE: 7/ 1/2024 / Origin: Program Fullerene / C70 from database
 C            1.40768612       -0.12820243        4.29910009
 C            2.60443923       -0.32525920        3.49723784
 C            2.37383682       -1.50105503        2.67506395
 C            0.58591338       -1.31544348        4.16122604
 C            1.28934561       -2.24352382        3.29561506
 C           -0.74940094       -0.89502964        3.77543561
 C            0.56909835        1.02982094        4.03295809
 C           -0.70714561        0.53685170        3.54129312
 C            1.14634489        2.13227907        3.42201688
 C            3.19368789        0.78525281        2.91694094
 C            2.56600900        2.08232860        3.11800435
 C            3.57921885        0.71711653        1.51872045
 C            2.42714821       -1.39216512        1.28241341
 C            3.03862693       -0.28030749        0.70069087
 C            1.67479956       -2.26540504        0.49337197
 C            0.52958606       -3.08439153        2.50205802
 C            0.90775283       -3.25290992        1.11352651
 C           -1.45522582       -1.68569288        2.87881261
 C           -0.91395628       -2.91654701        2.50179018
 C           -2.37421670       -1.07348026        2.03005098
 C           -1.23746529        1.03403685        2.35285125
 C           -2.18142416        0.26838284        1.66648993
 C            0.47974736        2.73291969        2.27745275
 C           -0.59991020        2.08591044        1.68995316
 C            2.79008607        2.86898679        1.92078483
 C            3.63309632        2.08662494        1.03540367
 C            1.49813593        3.31221894        1.42024304
 C            3.49640026        2.30117701       -0.32253759
 C            2.89018296       -0.03912294       -0.66761224
 C            3.40388700        1.14496013       -1.19052000
 C            1.48038684       -1.98716138       -0.86258787
 C            1.98102980       -0.80445748       -1.41044252
 C            0.59910745       -2.76612055       -1.60911048
 C           -0.25685243       -3.79440464        0.43365803
 C           -1.40793756       -3.57395402        1.30097708
 C           -0.37711787       -3.60246725       -0.93335902
 C           -3.17322673       -1.89677143        1.24508884
 C           -2.60765673       -3.13956102        0.75300175
 C           -3.96381350       -1.31907566        0.18133069
 C           -2.71563091        0.76328980        0.47307306
 C           -3.72336053        0.06043223       -0.18122929
 C           -0.89215373        2.33032490        0.35045289
 C           -2.06282404        1.80450387       -0.18935810
 C            1.30269185        3.31984990        0.04171794
 C            2.43352079        3.18590031       -0.76273262
 C            0.05104417        2.95948913       -0.47737653
 C            2.90152051        1.64478756       -2.45062636
 C            2.27148426        2.93183912       -2.17613605
 C            1.51602063       -0.36624965       -2.66417077
 C            1.94128688        0.85101492       -3.18307048
 C           -0.04956507       -2.18570073       -2.76676762
 C            0.37957529       -0.95109241       -3.22718676
 C           -1.68211190       -3.32482559       -1.51558989
 C           -2.78513561       -3.15248217       -0.68940388
 C           -3.75841396       -2.12753242       -1.01291752
 C           -1.47892280       -2.43895710       -2.65372705
 C           -3.80131462        0.12378000       -1.62636124
 C           -3.49399854       -1.21498356       -2.11129473
 C           -2.37966614       -1.40842331       -2.93115588
 C           -2.42052307        2.13243011       -1.49260890
 C           -3.23443535        1.20937775       -2.27075850
 C           -0.15809524        3.00428793       -1.86306547
 C            0.93373986        2.87127507       -2.71921979
 C            0.94040173        1.77731819       -3.67300178
 C           -1.41355119        2.69011100       -2.37542088
 C           -0.52195490       -0.15987496       -3.93927641
 C           -1.94926442       -0.34924185       -3.72687453
 C           -2.53366912        0.96373761       -3.51383156
 C           -0.27995441        1.26877100       -4.08283963
 C           -1.47694435        1.95048531       -3.62663390
