   70
C70 / DATE: 7/ 1/2024 / Origin: Program Fullerene / C70 from database
 C            1.18352510        0.04843078        5.01454804
 C            2.44856603        0.08792379        4.30537967
 C            2.54293871       -1.13500995        3.53025701
 C            0.40804457       -1.05957323        4.47216399
 C            1.22905231       -1.74311567        3.49316275
 C           -0.87567484       -0.54153908        4.05047747
 C            0.34013731        1.22685845        5.01103108
 C           -0.96779616        0.83009053        4.51606648
 C            0.76280379        2.39583969        4.25822147
 C            2.74379523        1.19842499        3.40862828
 C            1.90640714        2.30492894        3.36311364
 C            3.16295852       -0.80459783        2.26542887
 C            3.24621151        0.63865381        2.16626166
 C            2.74794403       -1.47793646        1.13019891
 C            0.69041187       -2.04800102        2.24619626
 C            1.56058734       -2.21910664        1.17361669
 C           -1.33344363       -0.83363496        2.77012478
 C           -0.64825255       -1.75832262        1.97622787
 C           -2.19022570        0.07191457        2.15084533
 C           -1.41473778        1.84270813        3.57795076
 C           -0.37262611        2.84716832        3.47395488
 C           -2.02306988        1.43637811        2.39936767
 C            1.50829383        2.84180500        2.07234930
 C            0.10288352        3.19881095        2.14312997
 C            2.91317474        1.22002575        0.94174915
 C            1.97951370        2.26579175        0.89792111
 C            3.12724196       -0.93827463       -0.09095139
 C            3.11819779        0.45709405       -0.21469876
 C            2.94219938       -1.74380410       -1.20519999
 C            1.05481817       -2.71612602       -0.02506045
 C            1.93930444       -2.78267901       -1.09655702
 C           -1.15446411       -2.04082073        0.70531082
 C           -0.32129270       -2.60720120       -0.27116255
 C           -2.80222938       -0.30329586        0.95804269
 C           -2.37303564       -1.47384105        0.32962538
 C           -3.37615438        0.70483289        0.18691088
 C           -1.93647246        2.28703021        1.30491725
 C           -0.71090438        2.90118404        1.05079691
 C           -2.77723982        2.02290378        0.24013414
 C            1.26081358        2.48774809       -0.27657200
 C           -0.11733364        2.71922550       -0.20455966
 C            2.82531125        1.04262497       -1.44387243
 C            1.83277468        2.09750374       -1.47656398
 C            2.81484139       -1.15125237       -2.52224784
 C            2.64415400        0.21740055       -2.62600793
 C            1.44087233       -3.05293612       -2.42268484
 C            1.97666668       -2.03134341       -3.31339954
 C           -0.84438648       -2.91514621       -1.53793903
 C            0.01124766       -3.10103047       -2.62361730
 C           -2.95605306       -1.85461124       -0.87362289
 C           -2.18721345       -2.66010328       -1.80314112
 C           -3.71974280        0.44299882       -1.19698715
 C           -3.69892757       -0.86989601       -1.64484738
 C           -2.30820487        2.31215037       -1.09769204
 C           -0.93847995        2.44974686       -1.30889061
 C           -3.09998186        1.49527648       -1.99825606
 C            0.99276370        1.89132676       -2.63862108
 C            1.51688811        0.75284665       -3.37750834
 C           -0.38211218        2.05151430       -2.53129213
 C            0.85852921       -1.47433309       -4.05412532
 C           -0.25333593       -2.39439361       -3.86543201
 C            0.62600824       -0.09746048       -4.03411483
 C           -2.57928831       -2.27540815       -3.15188185
 C           -3.46876861       -1.13147250       -3.05283328
 C           -1.54304327       -1.95620108       -4.11946057
 C           -2.58772131        1.19912429       -3.25111192
 C           -1.18612134        1.47527164       -3.51683801
 C           -0.65509420        0.37447880       -4.30830727
 C           -2.92469546       -0.06864219       -3.87666035
 C           -1.73175803       -0.57692612       -4.53139227
