   70
C70 / DATE: 7/ 1/2024 / Origin: Program Fullerene / C70 from database
 C            1.38552763       -0.00992636        4.35332638
 C            2.57300038       -0.30278545        3.58609961
 C            2.53050472       -1.70991908        3.22153708
 C            0.54666915       -1.19770441        4.36167795
 C            1.26960381       -2.26104217        3.68712841
 C           -0.77042398       -0.81916395        3.86864727
 C            0.56197161        1.09920119        3.92951793
 C           -0.80412330        0.62466815        3.79033418
 C            1.03413863        1.98929824        2.96970100
 C            2.82297000        0.46533291        2.37799339
 C            2.01155286        1.55612099        2.06000823
 C            2.86456000       -1.81260561        1.81115652
 C            3.16592321       -0.47630289        1.33009562
 C            2.12951511       -2.66662040        0.99251825
 C            0.56430589       -3.10689340        2.84383396
 C            1.14363023       -3.47488609        1.56334576
 C           -1.35111202       -1.56572395        2.85355541
 C           -0.84228045       -2.83771556        2.59288031
 C           -2.15216682       -0.92698006        1.90159198
 C           -1.59908204        1.24897132        2.83712197
 C           -2.16692038        0.47423490        1.81183525
 C            0.12069091        2.94692715        2.55199618
 C           -1.28700808        2.57931027        2.58082851
 C            0.35077134        3.66170207        1.31555681
 C            1.95083794        1.97675957        0.72440847
 C            1.26517657        3.15111467        0.40224684
 C            2.83980905       -0.16222019        0.02149325
 C            2.42278990        1.13155441       -0.29138978
 C            2.10224843       -2.42119457       -0.38235280
 C            2.57113297       -1.19669177       -0.86873485
 C            1.33252051       -3.24484527       -1.20281260
 C            0.04898513       -3.96519224        0.74025494
 C           -1.19288863       -3.52005034        1.36009023
 C            0.18228133       -3.92571845       -0.63953703
 C           -2.74171153       -1.68427700        0.88962881
 C           -2.20896739       -2.99993959        0.57284779
 C           -3.09890929       -1.04021533       -0.36016367
 C           -2.61194844        1.08362435        0.62443544
 C           -2.82334740        0.31122484       -0.51267808
 C           -1.94649101        3.26484796        1.49639158
 C           -0.95038936        4.08885999        0.83576056
 C           -2.59225267        2.46490018        0.48449550
 C           -1.20389571        4.02966295       -0.58773800
 C           -2.24184578        3.02638647       -0.80761602
 C            1.16902094        3.55366509       -0.92889356
 C           -0.10920899        4.04412694       -1.43678235
 C            2.28351413        1.48941468       -1.63450518
 C            1.77372435        2.73906166       -1.96449358
 C            2.46239491       -0.89398370       -2.22002503
 C            2.33286310        0.49778150       -2.61590666
 C            0.97002430       -2.80631524       -2.53912582
 C            1.58851863       -1.68443839       -3.06976834
 C           -0.96752391       -3.59647721       -1.46731015
 C           -2.13053924       -3.11553521       -0.87442858
 C           -2.81027744       -1.96363882       -1.44338673
 C           -0.46809013       -2.97861153       -2.68619502
 C           -2.40481052       -1.45690611       -2.66910955
 C           -1.22085968       -1.99703652       -3.32169283
 C           -2.54219079        0.83827191       -1.77951354
 C           -2.15006722        2.17528802       -1.90975180
 C           -2.40030348       -0.01860701       -2.87026353
 C           -0.28433126        3.51265365       -2.77135806
 C            0.95922516        2.87483141       -3.16014901
 C           -1.34974072        2.55399155       -2.99034036
 C            1.41639314        0.55384634       -3.74651630
 C            0.83066344       -0.76670215       -3.90513597
 C           -0.55052436       -0.89929281       -4.00232781
 C           -1.39798232        0.27668145       -3.87714807
 C            0.62285504        1.68011374       -3.91367860
 C           -0.82810009        1.54172825       -3.89351213
