   70
C70 / DATE: 7/ 1/2024 / Origin: Program Fullerene / C70 from database
 C            1.18058863        0.00411527        4.24889360
 C            2.46107269       -0.28835519        3.64620350
 C            2.46641112       -1.69807297        3.30395369
 C            0.36307018       -1.19703476        4.15677384
 C            1.09420905       -2.16635328        3.37528627
 C           -0.94480457       -0.79619771        3.69956212
 C            0.39561577        1.09822031        3.71316815
 C           -0.97958749        0.65787903        3.67208663
 C            0.86810685        1.83836521        2.64159295
 C            2.85067268        0.44351350        2.45859465
 C            2.05247543        1.47443088        1.98135528
 C            3.16971903       -1.84383571        2.04499754
 C            3.38427435       -0.50932199        1.50193900
 C            2.73673004       -2.83441534        1.18182995
 C            0.51699147       -2.70818759        2.22687181
 C            1.37148010       -3.33029221        1.32183068
 C           -1.54454273       -1.48420316        2.65161977
 C           -0.74494654       -2.26261954        1.79453804
 C           -2.72958088       -0.93761938        2.17492385
 C           -1.86038467        1.26353752        2.77946011
 C           -2.94126832        0.48786975        2.37332188
 C           -0.03629201        2.65990825        1.97830244
 C           -1.39493054        2.29150796        1.93582807
 C            0.48574272        3.52152084        1.02483167
 C            2.24276091        1.88456784        0.66547349
 C            1.62648951        3.06207466        0.25680186
 C            3.17741753       -0.28795214        0.13730028
 C            2.64076146        0.93781390       -0.28908409
 C            2.97248024       -2.66037557       -0.23497348
 C            3.20099356       -1.37968526       -0.73560576
 C            0.89518663       -3.67326610       -0.00230543
 C            2.02468293       -3.52614330       -0.90988071
 C           -1.15598063       -2.49496976        0.46768766
 C           -0.36510295       -3.25032375       -0.40477122
 C           -3.18016611       -1.25547862        0.83855104
 C           -2.29507491       -1.86311560       -0.03558314
 C           -3.80075973        0.95953920        1.31604137
 C           -3.96792559       -0.12906618        0.36510728
 C           -2.24779829        2.82552630        0.94858879
 C           -3.39720949        2.13114230        0.57442203
 C           -0.40373426        4.22251205        0.13093533
 C           -1.78665211        3.80940973        0.07618546
 C            1.29371535        3.23010054       -1.14134137
 C            0.14962675        4.11781503       -1.21098456
 C            2.29301501        1.12363802       -1.63416931
 C            1.37403636        2.11784391       -1.96993296
 C            3.04565980       -1.16385674       -2.09856689
 C            2.52188004        0.10854335       -2.55397111
 C            1.78594910       -3.32442757       -2.26056473
 C            2.44675960       -2.20877318       -2.91737514
 C           -0.66555040       -3.25259274       -1.76621606
 C            0.41475987       -3.36528422       -2.73387020
 C           -2.36034238       -1.53996744       -1.38940398
 C           -1.60867185       -2.28042607       -2.28564073
 C           -3.69674478        0.40168462       -0.95961692
 C           -3.62316969        1.84456870       -0.83300713
 C           -2.77814369       -0.26228864       -1.76564716
 C           -2.15256295        3.72037095       -1.32844806
 C           -0.92951082        3.78373647       -2.10991815
 C           -2.90895736        2.56350271       -1.77693268
 C            0.33857506        1.81213565       -2.86849378
 C           -2.03093308        0.45047878       -2.71144172
 C           -0.83508418        2.55866340       -2.87621916
 C           -2.08544543        1.84244278       -2.73689639
 C            1.48331024       -0.16232736       -3.52738955
 C            1.48995510       -1.58192673       -3.81367866
 C            0.24494971       -2.30561606       -3.71596511
 C           -0.95216706       -1.56966323       -3.36347233
 C            0.27968178        0.52314533       -3.39426447
 C           -0.93578117       -0.17808966       -3.30922790
