   70
C70 / DATE: 7/ 1/2024 / Origin: Program Fullerene / C70 from database
 C            1.19726497        0.14751469        4.78565449
 C            2.44849342        0.01513621        4.07139180
 C            2.53473396       -1.36414498        3.64261524
 C            0.37890095       -1.01596917        4.45487042
 C            1.18417859       -1.89782817        3.64564203
 C           -0.87147741       -0.53349819        3.91250788
 C            0.39405441        1.32004115        4.52870351
 C           -0.96033613        0.85484417        4.29483737
 C            0.73965895        2.17486641        3.40339774
 C            2.67754201        0.83931574        2.89448387
 C            1.70799389        1.76264819        2.49350556
 C            3.25908908       -1.38243366        2.38804882
 C            3.30653709       -0.01137936        1.89742642
 C            2.92715252       -2.37551517        1.48510101
 C            0.67771818       -2.38925079        2.44647881
 C            1.59902370       -2.96825489        1.58280440
 C           -1.23957548       -0.88298400        2.61252182
 C           -0.50827615       -1.85591192        1.91258505
 C           -2.15396477       -0.06935853        1.92109096
 C           -1.55010768        1.76000825        3.34450366
 C           -0.51438840        2.68067357        2.89916537
 C           -2.38447996        1.24505778        2.36510991
 C           -0.59967120        3.12595441        1.58641963
 C            1.51673223        2.01012434        1.12909160
 C            0.42712216        2.78676617        0.68748355
 C            3.04986495        0.23525645        0.55229385
 C            2.36500380        1.39556005        0.20340126
 C            3.14861437       -2.12222060        0.07905062
 C            3.15930664       -0.80600813       -0.37750351
 C            1.19262110       -3.33338140        0.24325414
 C            2.33421043       -3.09127531       -0.61985069
 C           -0.89507099       -2.18525089        0.60815527
 C           -0.06901258       -2.97209808       -0.20831111
 C           -2.58840351       -0.46203956        0.64649954
 C           -2.05940149       -1.62915068        0.07972923
 C           -3.37988477        0.40577653       -0.12543566
 C           -2.82744033        2.18233049        1.44915153
 C           -1.89472476        3.23955357        1.09719384
 C           -3.46550803        1.74158359        0.23582374
 C           -2.09821459        3.56773163       -0.29025979
 C           -3.19697471        2.75058715       -0.77367933
 C            0.26153546        3.03964164       -0.68861421
 C           -0.98924089        3.39256115       -1.19448344
 C            2.30208355        1.74995413       -1.13180478
 C            1.20015357        2.56496890       -1.59661114
 C            2.87029809       -0.56365467       -1.72475434
 C            2.56960049        0.73497074       -2.13605522
 C            2.09866678       -2.88526522       -1.96458055
 C            2.56021532       -1.64126432       -2.55793516
 C           -0.32167841       -3.05421657       -1.58000264
 C            0.75573906       -3.10464189       -2.46759703
 C           -2.52184991       -2.08560670       -1.15075635
 C           -1.58307638       -2.71646397       -2.05901626
 C           -3.66001553        0.09438219       -1.45214048
 C           -3.38160838       -1.23522854       -1.94106868
 C           -2.86497440        2.30690004       -2.11381348
 C           -1.49174501        2.70962525       -2.37938501
 C           -3.26894381        1.03855778       -2.49190145
 C            0.73578834        2.00897923       -2.85965340
 C            1.65904304        0.96247850       -3.25139158
 C           -0.63361266        1.85645998       -3.07160073
 C            1.75849055       -1.42352115       -3.75057035
 C            0.67051426       -2.38885578       -3.72613329
 C            1.18791445       -0.11241996       -3.98564454
 C           -1.70971342       -2.06354598       -3.35860355
 C           -2.78035032       -1.09618564       -3.25732672
 C           -2.45912836        0.30691941       -3.44172424
 C           -1.12872346        0.67631976       -3.64673784
 C           -0.55863731       -1.69218582       -4.03758169
 C           -0.24564920       -0.27303953       -4.16746573
