   70
C70 / DATE: 7/ 1/2024 / Origin: Program Fullerene / C70 from database
 C            1.33615974       -0.20890336        4.50197755
 C            2.62069983       -0.45246446        3.87609010
 C            2.57265399       -1.76517722        3.25152288
 C            0.49465694       -1.37116937        4.26401233
 C            1.25525988       -2.32824264        3.48217646
 C           -0.78245602       -0.90279204        3.75299761
 C            0.58287883        0.97364000        4.12244350
 C           -0.75349841        0.54875603        3.74934359
 C            1.19963882        1.97350827        3.38429321
 C            3.11228736        0.49405394        2.89000626
 C            2.49321074        1.72825364        2.75402392
 C            3.04981325       -1.62940522        1.88572140
 C            3.46279950       -0.25068075        1.69496090
 C            2.37092181       -2.27124658        0.85057620
 C            0.62192440       -2.98748074        2.43889873
 C            1.29341183       -3.10328025        1.15278132
 C           -1.37840719       -1.56038848        2.67744990
 C           -0.78000525       -2.71015493        2.16306583
 C           -2.29458912       -0.86207119        1.88739042
 C           -1.43868652        1.20979055        2.73778977
 C           -2.44588124        0.51508910        2.08400878
 C            0.40236401        2.75459082        2.45492283
 C           -0.88621189        2.33996574        2.12073714
 C            2.46952761        2.36265672        1.44770661
 C            1.29287365        3.21029676        1.40411217
 C            3.27655156        0.31576711        0.44030538
 C            2.82563271        1.63619731        0.31215500
 C            2.49711622       -1.77057918       -0.44736755
 C            3.14407143       -0.54478774       -0.63969504
 C            1.69898845       -2.30043040       -1.46534656
 C            0.26292758       -3.32590301        0.15206077
 C           -1.02414696       -3.08191237        0.77919951
 C            0.46602365       -2.86830546       -1.14210483
 C           -2.77610805       -1.45205148        0.71515411
 C           -1.99430394       -2.40199567        0.05666530
 C           -3.83639095       -0.85599593        0.04108634
 C           -3.29468533        1.23853636        1.26361339
 C           -4.13929568        0.53160807        0.32186321
 C           -1.48321148        2.85125732        0.96058167
 C           -2.75011101        2.40262248        0.59290668
 C            0.75389432        3.53602735        0.17121569
 C           -0.68310005        3.43365762       -0.02307134
 C            2.43063994        2.10914669       -0.94645256
 C            1.39470528        3.03966450       -1.03548456
 C            3.21597962        0.00408500       -1.90875092
 C            2.73858605        1.36192380       -2.08148895
 C            1.96568172       -1.95606084       -2.78599646
 C            2.76666366       -0.77778743       -3.04312480
 C            0.87733639       -1.95016158       -3.74390674
 C           -0.64937726       -2.60162566       -1.94019980
 C           -1.88915886       -2.36668734       -1.33615950
 C           -0.46474282       -2.23851438       -3.27269057
 C           -3.94667486       -1.03552315       -1.39340002
 C           -2.90610431       -1.77566951       -2.08316001
 C           -4.09649588        1.25783637       -0.93668323
 C           -3.05607131        2.25825328       -0.82112274
 C           -4.00655191        0.28774501       -2.00053127
 C           -0.92157301        3.10178870       -1.42121377
 C            0.36196249        2.85842537       -2.04662237
 C           -2.01009989        2.30359596       -1.74270224
 C            1.78802611        1.33978480       -3.18144185
 C            1.99535002        0.10279817       -3.90499511
 C            0.84095242       -0.63136519       -4.36251838
 C            0.49937640        1.82780297       -2.96548023
 C           -1.32920852       -1.22497335       -3.84973018
 C           -2.55253534       -0.99303288       -3.25366266
 C           -2.89773958        0.37620471       -2.92872372
 C           -1.86614356        1.29514482       -2.70844962
 C           -0.47577840       -0.08299630       -4.10887827
 C           -0.62220365        1.05934073       -3.31466059
