   70
C70 / DATE: 7/ 1/2024 / Origin: Program Fullerene / C70 from database
 C            1.51706821        0.04077511        4.68687624
 C            0.73328439       -1.17132022        4.56318070
 C            1.36816776       -2.02347924        3.57452258
 C            2.60937895       -0.04106998        3.73317490
 C            2.48559324       -1.28017028        3.00497063
 C            2.60711035        1.17985947        2.97323071
 C            0.66715584        1.15034437        4.28517652
 C            1.38626510        1.90451115        3.29365334
 C           -0.63982454       -0.77788067        4.33652066
 C           -0.62159043        0.61543999        3.91591854
 C           -1.44477895       -1.65181646        3.63376432
 C            0.56015345       -2.77704081        2.72434482
 C           -0.82438893       -2.75918524        2.91164959
 C            1.07714587       -3.14735321        1.48671220
 C            2.65425915       -1.27681892        1.62180884
 C            2.18330298       -2.38451714        0.92859487
 C            2.98040379        1.14487602        1.63680436
 C            2.88950533       -0.07005279        0.93157349
 C            2.73556342        2.31963495        0.94564721
 C            0.69018826        2.46539507        2.23068331
 C            1.49489842        3.01609454        1.24781997
 C           -1.17851852        0.96230253        2.68024505
 C           -0.54116501        1.90168011        1.84804286
 C           -2.43139294       -1.09175690        2.73871607
 C           -2.19642509        0.15757079        2.16439884
 C           -1.71746714       -3.09513377        1.80828020
 C           -2.85490065       -2.18509507        1.89317585
 C            0.18581971       -3.50739969        0.39410283
 C           -1.19259825       -3.43164483        0.55961913
 C            1.99859031       -2.31354147       -0.50262037
 C            0.78272438       -3.03005073       -0.84434840
 C            2.81765478       -0.04733336       -0.47608676
 C            2.27478173       -1.13564750       -1.16622631
 C            2.91181229        2.35328123       -0.48385630
 C            3.03253673        1.15213442       -1.17184213
 C            0.91395497        3.41911210       -0.00752901
 C            1.98975052        3.36357991       -0.97689208
 C           -1.03463712        2.11249676        0.54669058
 C           -0.33239753        2.92488872       -0.36144151
 C           -2.74165715        0.43756036        0.91318936
 C           -2.21379676        1.47603079        0.14448355
 C           -3.55752799       -1.87972359        0.74368517
 C           -3.61449951       -0.48723911        0.32969519
 C           -1.99407174       -3.30122350       -0.57232957
 C           -3.29297958       -2.66666840       -0.44244868
 C           -0.03959526       -2.53472059       -1.85598723
 C           -1.39760802       -2.84117243       -1.81984347
 C            1.67993074       -0.93296672       -2.40177471
 C            0.40738263       -1.46633439       -2.64428346
 C            2.86433433        1.18074605       -2.55856499
 C            2.18114796        0.07476057       -3.20528350
 C            1.66300750        3.34852770       -2.31846547
 C            2.36940874        2.40655758       -3.16520404
 C           -0.70030821        2.96674680       -1.71078673
 C            0.25689784        3.27822701       -2.68273226
 C           -2.71479230        1.69431532       -1.13616014
 C           -1.89640647        2.38549442       -2.11497330
 C           -3.82448464       -0.47915629       -1.10670654
 C           -3.49339165       -1.80705819       -1.59364518
 C           -2.34621330       -1.95533692       -2.47217998
 C           -3.37685448        0.60744031       -1.83577532
 C           -0.51068647       -0.76301320       -3.43865239
 C           -1.93259933        1.60690272       -3.34990944
 C           -1.86685718       -0.83096279       -3.12869895
 C           -2.59024468        0.35701515       -3.02919019
 C            1.34342851        0.60675674       -4.25827389
 C            1.48804304        2.05032306       -4.26129849
 C            0.18256727        2.61634587       -3.97339263
 C           -0.07182338        0.30265852       -4.22104546
 C           -0.79673529        1.56349820       -4.14250363
