   70
C70 / DATE: 7/ 1/2024 / Origin: Program Fullerene / C70 from database
 C            1.22944207       -0.03721527        4.33635129
 C            2.51466096       -0.37256155        3.76799757
 C            2.45017270       -1.75572295        3.32279023
 C            0.39631810       -1.22687435        4.25173723
 C            1.05488358       -2.15370216        3.36185183
 C           -0.93149653       -0.78939522        3.90761132
 C            0.47063846        1.05089645        3.74742892
 C           -0.91872733        0.66304179        3.85464241
 C            0.90781917        1.63254700        2.56160643
 C            2.99901399        0.40936050        2.65214570
 C            2.23885696        1.46542608        2.14984008
 C            3.16067728       -1.84808107        2.06105781
 C            3.61799107       -0.51182252        1.71310517
 C            2.62380913       -2.64299491        1.06444261
 C            0.42557112       -2.52983384        2.17331625
 C            1.21895519       -3.02738001        1.14247765
 C           -1.62583300       -1.45636257        2.90763946
 C           -0.88973055       -2.10795349        1.90360682
 C           -2.85950795       -0.90715702        2.59111359
 C           -1.85912861        1.26335958        3.02958990
 C           -3.01553804        0.51976720        2.81301211
 C           -0.04822524        2.14350194        1.67436959
 C           -1.40946086        2.11741387        2.01177577
 C            0.34135407        2.62296845        0.42114409
 C            2.65031026        2.01419881        0.94335033
 C            1.68443290        2.68281202        0.09562002
 C            3.69547710       -0.13171301        0.37424936
 C            3.51102129        1.21931684        0.08210867
 C            2.90897897       -2.31056017       -0.31592785
 C            3.50398585       -1.08944439       -0.63170117
 C            0.69862822       -3.06800149       -0.20800286
 C            1.79082472       -2.77717158       -1.11867613
 C           -1.37993548       -2.14077550        0.58315977
 C           -0.54566013       -2.52840667       -0.47159852
 C           -3.47242966       -1.20386459        1.31781213
 C           -2.69535113       -1.75038348        0.30620238
 C           -4.02150067        1.00678725        1.89757588
 C           -4.36094381       -0.09271375        1.00776835
 C           -2.33306259        2.66002392        1.11285644
 C           -3.69674339        2.15713229        1.08615995
 C           -0.59481263        2.72489939       -0.60140924
 C           -1.92967802        2.88837258       -0.26469865
 C           -0.25242681        2.30791278       -1.89283532
 C            2.08022288        2.47251773       -1.28632133
 C            3.27776565        1.64170874       -1.28343591
 C            1.10189897        2.26590265       -2.25951744
 C            3.48054855       -0.69207440       -1.96760472
 C            3.46171385        0.72381324       -2.30214525
 C            1.52492195       -2.12888612       -2.32011703
 C            2.55150075       -1.35729281       -2.86674134
 C           -0.84210367       -2.14627463       -1.77684462
 C            0.19234437       -1.88544875       -2.68507561
 C           -3.09078457       -1.54711579       -1.01516088
 C           -2.14392834       -1.77810439       -2.09258776
 C           -4.38828105        0.42460306       -0.34690767
 C           -4.02492799        1.83052873       -0.29080701
 C           -2.93827912        2.30814533       -1.12974365
 C           -3.85192769       -0.35292293       -1.36097115
 C           -1.24116535        1.75561446       -2.72414979
 C           -2.36749968       -0.74795455       -3.09376169
 C           -2.51543547        1.53467607       -2.20299380
 C           -3.12566435        0.29959541       -2.43415375
 C           -0.09617293       -1.17022776       -3.84950566
 C           -0.87060135        1.00558857       -3.83463395
 C           -1.30689064       -0.37587657       -3.89859907
 C            1.48667203        1.70193550       -3.47431966
 C            2.68347106        0.88023292       -3.51776179
 C            2.28079306       -0.44492840       -3.95816892
 C            0.49980910        1.03761626       -4.29425425
 C            0.92836923       -0.34501876       -4.45638371
