   70
C70 / DATE: 7/ 1/2024 / Origin: Program Fullerene / C70 from database
 C            1.62630734        0.09623756        4.50843456
 C            0.85996031       -1.13266138        4.49805526
 C            1.34033968       -1.96233414        3.40413570
 C            2.63851113       -0.01428755        3.47804285
 C            2.48537444       -1.29143605        2.81063907
 C            2.54960809        1.17289868        2.66221360
 C            0.72632782        1.17287265        4.12344967
 C            1.27295179        1.80509515        2.94306342
 C           -0.53957254       -0.76165730        4.49984039
 C           -0.60643243        0.62188402        4.05005124
 C           -1.43259986       -1.66080852        3.94324780
 C            0.39579517       -2.57139388        2.57911133
 C           -0.90226081       -2.70244178        3.07293939
 C            0.62494107       -2.61612978        1.19567315
 C            2.64048058       -1.32179928        1.43040979
 C            1.86831497       -2.21427529        0.69382150
 C            2.90401913        1.07013232        1.33253183
 C            3.16030629       -0.19218611        0.78882826
 C            2.38968921        2.02939012        0.48343809
 C            0.43618742        2.09962256        1.86319860
 C            1.03962115        2.36041706        0.62846598
 C           -1.41036765        0.92691194        2.95503172
 C           -0.90735616        1.70781003        1.89526879
 C           -2.60283093       -1.13459392        3.27005544
 C           -2.56416271        0.16529911        2.76579056
 C           -1.96991224       -3.09586974        2.17761723
 C           -3.08876977       -2.20036757        2.41646961
 C           -0.43337217       -2.83176414        0.29913033
 C           -1.71092109       -3.09725565        0.75708996
 C           -0.28554133       -2.46465850       -1.03044714
 C            2.11291481       -2.32164668       -0.67088169
 C            0.98496523       -2.49251964       -1.56947068
 C            3.44889095       -0.26069334       -0.57827541
 C            3.02932467       -1.38267356       -1.29607540
 C            2.99118798        2.12985546       -0.75304091
 C            3.65818033        0.94205331       -1.25571793
 C            2.25178458        2.70818921       -1.84738059
 C            0.24694882        2.55008808       -0.51058896
 C            0.86527983        2.80432232       -1.74380889
 C           -1.72142958        1.97247432        0.79035972
 C           -1.14387815        2.35951694       -0.43453188
 C           -3.44476767        0.51845228        1.75224421
 C           -3.05902867        1.57907250        0.84226116
 C           -3.65415837       -1.83953881        1.13381456
 C           -2.82274566       -2.44148670        0.09531698
 C           -4.08134268       -0.53272759        0.96305805
 C           -1.31070150       -1.75868039       -1.67122217
 C           -2.58898764       -1.73711903       -1.09134618
 C           -1.01871724       -0.93558337       -2.77745842
 C            1.25894788       -1.76471475       -2.78769640
 C            2.61916749       -1.25517256       -2.68895031
 C            0.26324037       -0.97799002       -3.36019570
 C            3.58615197        0.98452087       -2.70533407
 C            2.86136080        2.19318191       -3.06404326
 C            2.97419495       -0.12471599       -3.40972108
 C            0.63863985       -0.02430840       -4.30864158
 C            2.01457480        1.87670457       -4.19179339
 C            2.02027014        0.42840874       -4.35491509
 C            0.09913096        2.84430110       -2.90228918
 C            0.63269631        2.30333523       -4.14483420
 C           -0.18135607        1.14999077       -4.48423513
 C           -1.91557027        2.33253698       -1.61180659
 C           -1.90883394        0.09256767       -3.13501141
 C           -1.27264100        2.40769189       -2.83881363
 C           -1.38552111        1.24354527       -3.70327877
 C           -3.77569893        1.34691254       -0.38767810
 C           -4.20783700       -0.03969396       -0.38868097
 C           -3.46956454       -0.71968555       -1.43776755
 C           -3.07404512        1.56968159       -1.62215574
 C           -3.02566347        0.30889614       -2.34501140
