   70
C70 / DATE: 7/ 1/2024 / Origin: Program Fullerene / C70 from database
 C            1.22648834       -0.03641517        4.40615075
 C            2.49237723       -0.32385022        3.78420032
 C            2.39337140       -1.64919438        3.18852381
 C            0.37433696       -1.19950008        4.20668100
 C            0.99030614       -1.99912341        3.17408940
 C           -0.95936467       -0.69834648        3.97131461
 C            0.47313643        1.10477409        3.93232744
 C           -0.90796844        0.74429671        4.16001664
 C            0.81600162        1.70769774        2.71787139
 C            2.95456073        0.55564318        2.73339960
 C            2.06377999        1.45265334        2.13198096
 C            3.10086119       -1.58813625        1.92650732
 C            3.75607780       -0.29429712        1.88075092
 C            2.47427629       -2.03826890        0.76965040
 C            0.34414130       -2.12372673        1.94730548
 C            1.09950195       -2.32818767        0.79002682
 C           -1.69362156       -1.19397197        2.89845610
 C           -1.02400552       -1.83465070        1.84052563
 C           -2.90985430       -0.57305805        2.65348475
 C           -1.88828365        1.50776551        3.55377656
 C           -3.06390298        0.81185671        3.06672312
 C           -0.18861121        2.33028999        1.96952149
 C           -1.48063902        2.42451268        2.50072844
 C            0.03124436        2.63329417        0.62273526
 C            2.30116051        1.83534606        0.80778951
 C            1.23254864        2.26855207        0.01207308
 C            4.11098439        0.19715095        0.64069517
 C            3.50221861        1.44321284        0.21504105
 C            3.09297394       -1.74770270       -0.44671159
 C            4.00607689       -0.69346661       -0.49998145
 C            2.52397079       -2.22303387       -1.62201832
 C            0.44747207       -2.65502682       -0.39595119
 C            1.19774215       -2.80481687       -1.56135173
 C           -1.67260235       -2.03875505        0.61203448
 C           -0.94426045       -2.55541691       -0.47325622
 C           -3.53315779       -0.71314711        1.36017517
 C           -2.98558758       -1.57398342        0.42432169
 C           -3.58337846        1.56083025        1.93833625
 C           -2.62093590        2.59230893        1.61247136
 C           -3.95226543        0.60702813        0.91107824
 C           -1.02680702        3.07584359       -0.16736958
 C           -2.39225547        2.87818994        0.27873539
 C           -1.00162363        2.81528327       -1.59109972
 C            1.32952217        2.27773654       -1.39131201
 C            0.17467028        2.36870023       -2.16944594
 C            3.64492909        1.49479906       -1.22435893
 C            4.03646125        0.16335082       -1.66924842
 C            2.51049300        1.89843160       -2.01916689
 C            2.60555127       -1.43142720       -2.84430024
 C            3.21457559       -0.18301311       -2.81245307
 C            2.43921313        0.99803711       -3.15575565
 C            0.57278569       -2.60168307       -2.85585274
 C            1.35299861       -1.59738959       -3.56297720
 C           -1.56877817       -2.76163409       -1.70413574
 C           -0.81044230       -2.57312503       -2.92715580
 C           -3.48634550       -1.44915732       -0.86335670
 C           -2.87364495       -2.19070178       -1.93607014
 C           -3.76461828        0.93539238       -0.42982737
 C           -3.08411947        2.11244315       -0.75482524
 C           -2.25532393        2.16582043       -1.95031199
 C           -3.78465907       -0.11126297       -1.34875148
 C           -1.46923067       -1.51902649       -3.68554016
 C           -2.76872136       -1.30106029       -3.08224173
 C           -2.23760633        1.08986252       -2.83431617
 C           -3.12472728        0.03559159       -2.63500145
 C            0.09252314        1.65288231       -3.36112649
 C            1.22063755        0.85024023       -3.80331923
 C            0.71734389       -0.48285140       -4.10087412
 C           -1.12449535        0.91580009       -3.65772204
 C           -0.73547632       -0.41720933       -4.10231287
