   70
C70 / DATE: 7/ 1/2024 / Origin: Program Fullerene / C70 from database
 C            1.19607222       -0.00090631        4.34157305
 C            2.45951364       -0.30011941        3.70908489
 C            2.39666188       -1.67317564        3.23057384
 C            0.35459049       -1.18253862        4.22911590
 C            1.01782487       -2.10671932        3.34068281
 C           -0.97636502       -0.73965801        3.88041004
 C            0.42467205        1.12319733        3.85194119
 C           -0.96859919        0.71471768        3.84164998
 C            0.89979039        1.89859599        2.79732632
 C            2.88546164        0.51727332        2.59106096
 C            2.02227777        1.48201340        2.06478225
 C            3.02801265       -1.70317951        1.92231852
 C            3.57450040       -0.37881859        1.68307447
 C            2.38539938       -2.35686435        0.87415880
 C            0.36273894       -2.51866176        2.18691774
 C            1.12700216       -2.92958684        1.09904019
 C           -1.69019958       -1.41623900        2.90114300
 C           -1.01238945       -2.28322879        2.02194788
 C           -2.87092770       -0.81249595        2.49340637
 C           -1.85679141        1.36811980        2.98671823
 C           -2.92636530        0.64109567        2.45839506
 C            0.00553196        2.79167690        2.22354782
 C           -1.42368633        2.52081445        2.32853141
 C            0.26070734        3.30402585        0.89253015
 C            2.18847939        1.88383900        0.73137535
 C            1.24412660        2.70405506        0.11507626
 C            3.75736378        0.02925394        0.37388851
 C            3.17906261        1.29344382       -0.04432160
 C            2.80437898       -2.08992454       -0.43296681
 C            3.51097164       -0.92137255       -0.69758290
 C            2.20786208       -2.75410416       -1.49645404
 C            0.50151773       -3.63573936        0.08679027
 C            1.10193730       -3.65236758       -1.23136282
 C           -1.66717513       -2.80022408        0.88815281
 C           -0.93060711       -3.48116845       -0.07883922
 C           -3.56759947       -1.31783315        1.33569528
 C           -2.88051975       -2.25417276        0.47865728
 C           -3.50189914        1.02453582        1.17735277
 C           -3.97025033       -0.18132161        0.52408447
 C           -2.03058621        2.89995769        1.06259725
 C           -1.02581952        3.62160814        0.29966047
 C           -2.87160671        2.00003168        0.41636405
 C           -1.12775309        3.64902075       -1.07974593
 C            1.14729057        2.75430195       -1.28318698
 C            0.07586328        3.44070470       -1.86083024
 C            3.00449476        1.23142174       -1.48130649
 C            3.19368665       -0.15512592       -1.89209881
 C            1.99929100        1.97621085       -2.08242807
 C            1.89850056       -2.01491007       -2.71185855
 C            2.35434965       -0.70314525       -2.86406443
 C            0.05567828       -3.37608336       -2.20166951
 C           -1.17632478       -3.16806928       -1.47900863
 C            0.52333488       -2.32518827       -3.07225161
 C           -3.00509310       -1.77914403       -0.89163791
 C           -3.54769290       -0.43563209       -0.83793387
 C           -1.97913358       -2.07328339       -1.78728284
 C           -2.77118741        1.84127419       -0.96931084
 C           -2.16709999        2.85384020       -1.71004847
 C           -2.89553770        0.56592704       -1.53517134
 C           -0.37114639        3.09131658       -3.19410979
 C           -1.72444695        2.57162063       -3.06482829
 C            1.59536655        1.57670380       -3.35381293
 C            1.62465056        0.16214743       -3.67987201
 C            0.39526966        2.12781265       -3.94915885
 C           -0.32421405       -1.27613214       -3.39783694
 C           -1.49219329       -1.06427663       -2.63953570
 C           -2.09386486        0.20496685       -2.61381381
 C           -1.70215442        1.19209257       -3.50945512
 C            0.26821177       -0.20682275       -4.05501264
 C           -0.48321623        1.01061606       -4.26082764
