   70
C70 / DATE: 7/ 1/2024 / Origin: Program Fullerene / C70 from database
 C            0.96482250       -0.01501126        5.03420976
 C            2.25776726       -0.29720082        4.43704809
 C            2.22613930       -1.66913860        3.96571513
 C            0.13024377       -1.19613992        4.86080608
 C            0.84234177       -2.10651543        3.98936982
 C           -1.18637214       -0.75576987        4.46968671
 C            0.20431051        1.13049138        4.56829398
 C           -1.16946961        0.69824947        4.40291925
 C            0.75654871        1.99044218        3.62607962
 C            2.72840516        0.52944310        3.33959303
 C            2.05383390        1.69820034        3.02289461
 C            2.93198931       -1.72155404        2.70122786
 C            3.15713795       -0.35126741        2.26458657
 C            2.49024858       -2.63446748        1.76148321
 C            0.26586172       -2.54871791        2.79503395
 C            1.11791445       -3.12098571        1.85661020
 C           -1.73723182       -1.23605125        3.21832037
 C           -0.98187502       -2.05617053        2.37635635
 C           -1.89555562        1.08540333        3.20458043
 C           -2.45618162       -0.12264575        2.63270617
 C           -0.08965978        2.56041050        2.58781852
 C           -1.35987400        2.03452343        2.33825795
 C            1.99853717        2.12412310        1.63648194
 C            0.77319792        2.87685875        1.46172748
 C            2.89899552       -0.00784398        0.93246527
 C            2.39928701        1.26128080        0.61928428
 C            2.71966165       -2.34198248        0.36478847
 C            2.87498857       -1.01531677       -0.03802338
 C            0.64992774       -3.35481931        0.50384953
 C            1.80012298       -3.18742753       -0.36548950
 C           -1.35786649       -2.12969289        1.02576384
 C           -0.57345001       -2.83294673        0.10222386
 C           -2.68805637       -0.14614083        1.26951240
 C           -2.39989354       -1.31242350        0.57429756
 C           -1.85842251        2.09600181        1.03530076
 C           -2.67367388        1.05766260        0.57073813
 C            0.21000497        2.92620905        0.19815832
 C           -1.17318696        2.87235835        0.10509712
 C            1.96073787        1.52169453       -0.67926803
 C            0.96062000        2.48087586       -0.88835598
 C            2.60222733       -0.68961973       -1.36865899
 C            2.29056127        0.63095714       -1.69773357
 C            1.57949277       -2.89099960       -1.69493667
 C            2.22927084       -1.71534337       -2.23846542
 C           -0.83298886       -2.71793476       -1.26796812
 C            0.21223324       -2.85216714       -2.17948259
 C           -2.81866260       -1.39273375       -0.74479240
 C           -2.02285289       -2.14468581       -1.69405857
 C           -3.07193923        1.05339343       -0.76771897
 C           -3.26630405       -0.17531796       -1.40413738
 C           -1.74437187        3.06404808       -1.14193778
 C           -2.83767221        2.19410037       -1.53019852
 C            0.44478721        2.67973591       -2.16977915
 C           -0.86156295        3.16215566       -2.28970230
 C            1.96981423        0.95921412       -3.01403250
 C            1.08144033        2.08202991       -3.25641084
 C            1.52836489       -1.39314526       -3.46374030
 C            0.22162951       -2.03774223       -3.38606755
 C            1.60601610       -0.09916847       -3.94500445
 C           -2.07489099       -1.44947236       -2.97489776
 C           -2.98593680       -0.32328098       -2.82483706
 C           -0.91847807       -1.32145862       -3.74602587
 C           -2.83177721        2.11030585       -2.98232386
 C           -1.66670230        2.84148762       -3.45561942
 C           -2.82218839        0.80534372       -3.61462284
 C            0.34495590        1.79881195       -4.47887735
 C            0.51360503        0.38689506       -4.76448960
 C           -0.78619847       -0.24624176       -4.62481413
 C           -1.07429279        2.08385014       -4.53555343
 C           -1.78045587        0.81298421       -4.62526233
