   70
C70 / DATE: 7/ 1/2024 / Origin: Program Fullerene / C70 from database
 C            1.48700357        0.07408944        4.81763831
 C            0.71973630       -1.14892833        4.68424827
 C            1.58530961       -2.12496900        4.06158525
 C            2.65576035       -0.04783370        3.95985090
 C            2.73835956       -1.42049853        3.51897423
 C            2.56903955        0.98999653        2.95523234
 C            0.67560232        1.15857553        4.29829833
 C            1.46029470        1.85756597        3.30174613
 C           -0.53920822       -0.82634939        4.02770590
 C           -0.60215946        0.61729621        3.87899210
 C           -0.99086164       -1.63045088        2.98086828
 C            1.03477071       -2.91886952        2.98896534
 C           -0.32293804       -2.83170781        2.70129358
 C            2.78449640       -1.69453371        2.09088588
 C            1.95731925       -2.85739865        1.86825733
 C            2.74738833        0.68005724        1.60901236
 C            2.70953934       -0.65158793        1.17575721
 C            2.41584865        1.66484612        0.69084643
 C            0.78283739        2.45729031        2.24972233
 C            1.47594549        2.63220112        1.05648881
 C           -1.17071976        1.14639694        2.72765079
 C           -0.59878866        2.29292846        2.17427135
 C           -1.83453260       -1.06855378        2.01274764
 C           -1.95472940        0.32684291        1.91404030
 C           -2.41860515       -1.89702780        1.05143716
 C           -0.73875793       -3.57675409        1.60950661
 C           -1.94697552       -3.19635213        0.91073473
 C            1.42072421       -3.08528056        0.60591056
 C            0.25877259       -3.84828736        0.58874358
 C            2.29522090       -0.93367016       -0.13168681
 C            1.61396259       -2.13022563       -0.40974353
 C            2.59087481        1.38965644       -0.65450063
 C            2.34572199        0.08318952       -1.09113555
 C            2.46602211        2.45453787       -1.53236883
 C            0.88695753        3.40593394        0.05791390
 C            1.54907145        3.51795402       -1.16246275
 C           -1.26941614        2.92501386        1.13777271
 C           -0.49478781        3.60279767        0.10745647
 C           -2.63727342        0.90499039        0.83839546
 C           -2.35530123        2.22074651        0.47840040
 C           -3.18876617       -1.34332175        0.03254355
 C           -3.28673784        0.09656330       -0.08507656
 C           -3.12254093       -1.89768989       -1.31437726
 C           -1.84510393       -3.77540966       -0.41744832
 C           -0.43538529       -4.04963161       -0.65649217
 C           -2.33841689       -3.01869175       -1.55227876
 C            0.95053632       -2.27698642       -1.63885821
 C           -0.03110215       -3.25982960       -1.79325997
 C           -1.24798890       -2.93418978       -2.51166067
 C            1.83558285       -0.15050608       -2.37412709
 C            1.02938168       -1.26612145       -2.59884719
 C            2.30535815        2.18683707       -2.94152853
 C            1.86587176        0.86529782       -3.33386935
 C            0.79143603        3.87678584       -2.34617629
 C            1.35804943        3.15430649       -3.47026293
 C           -1.28371881        3.57030126       -1.11704165
 C           -2.32784642        2.57969811       -0.93255758
 C           -0.64159403        3.65567931       -2.34039045
 C           -3.22385230        0.44189194       -1.49920778
 C           -3.08827885       -0.78950475       -2.25520853
 C           -2.52905564        1.58631586       -1.88762995
 C           -1.20620071       -1.87892752       -3.40462393
 C            0.06592292       -1.21601322       -3.60826396
 C           -2.21527251       -0.83012182       -3.33170290
 C            0.72696051        1.03568150       -4.22493087
 C            0.28531933        2.41003984       -4.09933533
 C           -0.94322320        2.66920545       -3.36541059
 C           -1.78119360        1.59076660       -3.07378959
 C           -0.24405009        0.05297388       -4.22802093
 C           -1.58561546        0.40097299       -3.77961904
