   70
C70 / DATE: 7/ 1/2024 / Origin: Program Fullerene / C70 from database
 C            1.45719084       -0.06768100        5.11556013
 C            0.69120312       -1.29239623        4.98725232
 C            1.59624673       -2.29690897        4.47228427
 C            2.64412592       -0.21066930        4.28678912
 C            2.75451200       -1.60255359        3.92089676
 C            2.55856279        0.77514331        3.22883909
 C            0.66098915        1.00626251        4.55282020
 C            1.46470222        1.67195907        3.54909953
 C           -0.52259495       -0.98417993        4.24096956
 C           -0.61186439        0.46001753        4.12446316
 C           -0.89388687       -1.76928120        3.14869959
 C            1.10623560       -3.19176062        3.44871787
 C           -0.20483886       -2.95101468        2.86864653
 C            2.83904084       -1.94779289        2.51301106
 C            2.05757883       -3.15077058        2.35122330
 C            2.72187114        0.39866274        1.89535672
 C            2.73278233       -0.95541452        1.53367259
 C            2.36539588        1.33006847        0.92768600
 C            0.79853466        2.25629458        2.48279589
 C            1.47757581        2.35361577        1.27421267
 C           -1.17719316        0.99902647        2.97611080
 C           -0.58816593        2.13877458        2.43095148
 C           -1.69464436       -1.21011301        2.14843977
 C           -1.92401294        0.17324265        2.13538439
 C           -1.96461228       -1.96440481        1.00376771
 C           -0.10555626       -3.38222394        1.48912279
 C            1.29765613       -3.29530195        1.13192125
 C           -1.01776838       -2.88704083        0.56883914
 C            2.33786964       -1.31957770        0.23393450
 C            1.61691277       -2.50348088        0.03936660
 C            2.50680614        0.98772595       -0.41050631
 C            2.32106373       -0.34496448       -0.77793005
 C            2.33935134        1.99214143       -1.35016090
 C            0.90501546        3.12022162        0.26294627
 C            1.53020658        3.13913446       -0.97855716
 C           -1.24843209        2.77910983        1.39338368
 C           -0.45693529        3.41552603        0.35175498
 C           -2.60025464        0.75577158        1.05835385
 C           -2.34835781        2.08965878        0.74025530
 C           -2.86778442       -1.46951320        0.07124884
 C           -3.20521321       -0.05846264        0.10721279
 C           -2.72051501       -1.85057123       -1.32795680
 C           -0.61032415       -2.81899384       -0.75995939
 C            0.73500200       -2.55049910       -1.02466891
 C           -1.56074104       -2.51462817       -1.73083111
 C            1.76166667       -0.65313033       -2.03292791
 C            1.06069663       -1.85695615       -2.17421113
 C            2.02126273        1.64547169       -2.71893563
 C            1.69779534        0.33115466       -3.03535112
 C            0.77857610        3.55260982       -2.14815593
 C            1.19377976        2.71170879       -3.25541643
 C           -1.27996952        3.45173296       -0.84846686
 C           -2.37389959        2.51662844       -0.65286565
 C           -0.67034552        3.53145108       -2.08908487
 C           -3.31729840        0.40800360       -1.26878271
 C           -3.24841550       -0.75572716       -2.13122214
 C           -2.68462303        1.59060162       -1.64423325
 C           -2.80953204       -0.60190850       -3.43594448
 C           -1.13503242       -2.40171967       -3.05199444
 C            0.26268481       -2.08396903       -3.28520783
 C           -1.92311592       -1.61225421       -3.97847712
 C            0.95782400        0.10640373       -4.19975324
 C            0.34287179       -1.18399167       -4.40894742
 C           -1.00755643       -0.96473409       -4.90009979
 C            0.00724424        2.34453202       -4.00037758
 C           -1.14296387        2.67988081       -3.16763641
 C           -2.12395713        1.71259430       -2.92234510
 C           -2.30834948        0.69592294       -3.86123964
 C            0.01106692        1.12215276       -4.65073990
 C           -1.26314577        0.46138353       -4.84300319
