   70
C70 / DATE: 7/ 1/2024 / Origin: Program Fullerene / C70 from database
 C            1.38513013       -0.16253016        4.05096555
 C            2.44873756       -0.34168191        3.08002632
 C            2.29764521       -1.66725227        2.49481448
 C            0.52598455       -1.33196061        3.99386765
 C            1.05017510       -2.22702092        2.97553466
 C           -0.84663797       -0.87457798        3.87973263
 C            0.54585121        1.01421724        3.95630377
 C           -0.81752724        0.56955660        3.71515325
 C            1.02062015        2.10892825        3.25362180
 C            2.82301795        0.72449696        2.26253979
 C            2.21216196        1.97044447        2.42233138
 C            3.48327885        0.44556589        1.06845976
 C            2.66239407       -1.86060086        1.16901280
 C            3.50774842       -0.92332715        0.58324809
 C            1.89026006       -2.69430490        0.35414099
 C            0.17115180       -2.79785204        2.06369674
 C            0.62738537       -3.12527357        0.78447774
 C           -1.72323205       -1.61723607        3.10820514
 C           -1.20100728       -2.71603348        2.31034225
 C           -2.69476443       -0.92342606        2.28502883
 C           -1.56431469        1.17382157        2.70117377
 C           -2.51147988        0.42634143        1.98714486
 C            0.07638563        2.93285285        2.52194086
 C           -1.20863354        2.45307286        2.26781424
 C            2.03845089        2.83359804        1.26201691
 C            0.81698794        3.59252674        1.45876165
 C            3.28157554        1.31240428       -0.08415143
 C            2.35703792        2.34341123       -0.00101228
 C            3.64042922       -0.87342009       -0.86002216
 C            3.33353280        0.48917298       -1.27610188
 C            2.28425635       -2.90144431       -0.97012077
 C            3.16069763       -1.93385178       -1.61164179
 C            1.31356358       -3.34533872       -1.95816918
 C           -0.26013092       -3.69661540       -0.12579514
 C            0.02523943       -3.63860325       -1.54576638
 C           -2.14788034       -2.95070132        1.23333195
 C           -3.09067754       -1.84077882        1.23042722
 C           -1.68528395       -3.47085717        0.03351943
 C           -3.54449323       -1.32156583        0.02740650
 C           -3.13303720        0.96694418        0.85629740
 C           -3.62407161        0.11970779       -0.13491557
 C           -1.97368670        3.08213414        1.29400721
 C           -2.91922030        2.29864214        0.52399590
 C            0.12546746        4.05354690        0.35107448
 C           -1.32494745        4.01346864        0.38567960
 C            1.51423458        2.61093512       -1.08491297
 C            0.54398142        3.60962396       -0.96854969
 C            2.41888564        0.70895395       -2.30084908
 C            1.52256922        1.77860840       -2.21351079
 C            2.62532980       -1.65598894       -2.93030011
 C            1.49082670       -2.53702383       -3.15012627
 C            2.19884222       -0.30191190       -3.23766569
 C            0.38066192       -1.72176313       -3.61487552
 C            0.90961733       -0.40009882       -3.89953672
 C           -1.09532685       -2.95933592       -2.18101442
 C           -2.19155922       -2.94965696       -1.22808926
 C           -3.08125098       -1.88648415       -1.23113496
 C           -0.86040493       -1.84779087       -2.99257288
 C           -3.34515950        0.42903207       -1.52774948
 C           -2.87614637       -0.79222179       -2.16435228
 C           -1.73364730       -0.75382975       -2.95848964
 C           -2.76454550        2.65727598       -0.87943740
 C           -1.79710873        3.73569441       -0.95866410
 C           -0.63926222        3.56993462       -1.81312630
 C           -2.74539472        1.64627782       -1.83876450
 C            0.49404104        1.87693992       -3.14994728
 C            0.05585697        0.68528699       -3.84928893
 C           -1.33535102        0.47083957       -3.48884413
 C           -0.69954258        2.63308832       -2.82908004
 C           -1.82428737        1.70501443       -2.88751659
