   70
C70 / DATE: 7/ 1/2024 / Origin: Program Fullerene / C70 from database
 C            1.20907394       -0.06014226        4.46674709
 C            2.48246374       -0.27712248        3.80924490
 C            2.44325697       -1.59809105        3.20228297
 C            0.39387758       -1.24622341        4.24870143
 C            1.08601396       -2.09301296        3.30651764
 C           -0.94001197       -0.80957785        3.91545650
 C            0.41004164        1.09785622        4.10299083
 C           -0.95600025        0.64348651        3.93546290
 C            0.91744306        2.04206925        3.22250586
 C            2.92277562        0.66162253        2.79335944
 C            2.20810424        1.83175618        2.57682600
 C            3.03069178       -1.49776332        1.88027565
 C            3.38121855       -0.10859099        1.65102872
 C            2.44719398       -2.19611269        0.82931473
 C            0.44002796       -2.47992924        2.13722847
 C            1.22182536       -2.84123313        1.04200481
 C           -1.63851810       -1.45015775        2.89713800
 C           -0.92576998       -2.20543041        1.94762544
 C           -2.84142097       -0.85448615        2.52458877
 C           -1.80828916        1.28451172        3.04212397
 C           -2.96255237        0.58330306        2.71667824
 C            0.02571850        2.65190630        2.24993297
 C           -1.27167028        2.17510766        2.09651734
 C            2.11759549        2.36329151        1.23022995
 C            0.80425286        2.95604912        1.06562371
 C            3.22565621        0.39301826        0.36235158
 C            2.66038693        1.65981766        0.15990008
 C            2.80263870       -1.82553368       -0.46771311
 C            3.24130766       -0.51603390       -0.69738004
 C            2.37383959       -2.61598885       -1.52890167
 C            0.60139819       -3.48869623       -0.01589626
 C            1.25432282       -3.50911099       -1.31122777
 C           -1.51437881       -2.49346176        0.70574364
 C           -0.81023735       -3.24037951       -0.23380857
 C           -3.41729457       -1.15498417        1.23157662
 C           -2.60423015       -1.74117268        0.27101313
 C           -3.82977389        1.09854316        1.68344452
 C           -4.26659742       -0.03383773        0.88252826
 C           -1.92713505        2.38870229        0.87614763
 C           -3.28233747        2.07956314        0.77576117
 C            0.20408287        2.87487508       -0.18362163
 C           -1.18146848        2.67911588       -0.28239002
 C            2.25774509        2.01473019       -1.12715639
 C            1.01557161        2.64904106       -1.29460135
 C            3.29447643       -0.01107463       -1.99286746
 C            2.86647396        1.35818342       -2.19446849
 C            2.19670633       -2.02405087       -2.83985551
 C            2.79240912       -0.80255006       -3.10623405
 C            0.25032535       -3.21153569       -2.32070300
 C           -0.98467787       -2.91387294       -1.63740077
 C            0.80121564       -2.21548536       -3.20920915
 C           -2.68190341       -1.35085756       -1.07573214
 C           -1.68940477       -1.76182474       -1.95955303
 C           -4.30354751        0.40350961       -0.49253506
 C           -3.84469756        1.78410880       -0.52126298
 C           -3.52270430       -0.32283217       -1.47376558
 C           -1.78264711        2.59290777       -1.55239035
 C           -2.99502523        1.92685616       -1.67717346
 C           -2.99847998        0.65986684       -2.39240377
 C            0.44805970        2.78632086       -2.55354808
 C           -0.97588587        2.57185674       -2.68559513
 C            2.31400714        1.45708790       -3.52847801
 C            2.11682390        0.10301493       -4.01830350
 C            1.07253081        2.17209490       -3.70943655
 C            0.03712814       -1.10611337       -3.56495390
 C           -1.19637007       -0.86105100       -2.92543641
 C           -1.87061490        0.35567217       -3.14869174
 C           -1.14533255        1.45225042       -3.59800652
 C            0.69271909       -0.07658129       -4.23994284
 C            0.10757697        1.24280553       -4.27822865
