   70
C70 / DATE: 7/ 1/2024 / Origin: Program Fullerene / C70 from database
 C            1.39430302       -0.34172037        5.55994412
 C            0.57080467       -1.49759071        5.25707908
 C            1.23705141       -2.25962069        4.21526860
 C            2.56951979       -0.39937581        4.70717395
 C            2.40512420       -1.51353091        3.79228729
 C            2.75506762        0.92052091        4.15187540
 C            0.64923664        0.84706202        5.17844128
 C            1.55791281        1.69916817        4.44983678
 C           -0.67521215       -1.01509520        4.69234231
 C           -0.57105148        0.42057755        4.51856552
 C            0.24233591       -2.58275667        3.20581457
 C           -0.94979438       -1.81333063        3.51567588
 C            0.64131329       -2.62829680        1.86954121
 C            2.58129004       -1.32264952        2.42354392
 C            1.93462148       -2.20478543        1.55665939
 C            2.99712651        1.04234681        2.72703194
 C            3.03017693       -0.08957206        1.92069538
 C            1.10697065        2.27497880        3.19911456
 C            2.20990267        2.16073425        2.26829968
 C           -0.91499385        0.95220398        3.27304818
 C           -0.17663401        2.00613920        2.71804911
 C           -1.59163132       -1.20807262        2.44865572
 C           -1.71480804        0.18260599        2.42825533
 C           -0.35004068       -2.51440549        0.88686208
 C           -1.53481598       -1.85789819        1.22427248
 C            0.01379454       -2.62089227       -0.46084690
 C            2.32320583       -2.20247664        0.22826987
 C            1.36422688       -2.61014785       -0.78159777
 C            2.99938050        0.11075863        0.53797760
 C            2.98755765       -1.01492756       -0.27043276
 C            1.89491064        2.22300307        0.92369456
 C            2.48592206        1.31709864        0.03682458
 C           -0.43930220        2.37390657        1.39357796
 C            0.64791615        2.73137361        0.59492376
 C           -2.21346061        0.75973457        1.26606305
 C           -1.60625996        1.91623100        0.77437329
 C           -2.34285660       -1.36907236        0.21172227
 C           -2.85174472       -0.07979587        0.36263467
 C           -0.92002656       -2.31578264       -1.45755173
 C           -2.19105790       -1.89112222       -1.06571296
 C           -0.48666036       -2.10574424       -2.77738831
 C            1.78578142       -1.99722880       -2.02188917
 C            2.65619963       -0.88523854       -1.67169303
 C            0.85611932       -1.79735452       -3.02955047
 C            2.17739180        1.44604765       -1.32735471
 C            2.37669896        0.36834218       -2.20227914
 C            0.43596996        3.06264599       -0.72835364
 C            1.34737929        2.50457873       -1.70879585
 C           -1.89516885        2.33156978       -0.53500419
 C           -0.90353211        2.97016071       -1.27402495
 C           -3.51244506        0.50792753       -0.70237033
 C           -2.96652347        1.74988036       -1.21490630
 C           -3.14453510       -1.56064537       -2.02024666
 C           -3.87643155       -0.32438766       -1.83378796
 C           -1.43119444       -1.92184029       -3.78909268
 C           -2.80926430       -1.66205552       -3.42489593
 C           -1.12350717       -1.03979123       -4.90151198
 C            1.16377869       -0.80962902       -3.95998905
 C            1.82229702        0.39475741       -3.48398924
 C            0.18338108       -0.41937758       -4.94961623
 C            0.64356494        2.46758518       -2.97413643
 C           -0.77018613        2.69529524       -2.69787619
 C            1.00915799        1.52054940       -3.91109412
 C           -0.00221222        1.01845328       -4.82550424
 C           -2.92367387        1.63876374       -2.66830003
 C           -3.70705109        0.46956089       -3.03491764
 C           -3.21349781       -0.41733915       -4.06782035
 C           -2.10657851        0.03001480       -4.88472143
 C           -1.73847007        1.93076187       -3.34396827
 C           -1.40276941        1.24821191       -4.51717476
