   70
C70 / DATE: 7/ 1/2024 / Origin: Program Fullerene / C70 from database
 C            1.15213472       -0.11799115        4.57669121
 C            2.37494454       -0.51156548        3.90994956
 C            2.14456734       -1.80758907        3.28350926
 C            0.27834645       -1.27500843        4.57448226
 C            0.77401173       -2.18470298        3.55402888
 C           -1.07749672       -0.78104002        4.45299459
 C            0.39398764        0.99329173        4.02619725
 C           -1.00722326        0.63610496        4.12335493
 C            0.85896674        1.61962727        2.87061922
 C            2.90265084        0.36220447        2.88448723
 C            2.22020516        1.53130643        2.56092598
 C            2.58151887       -1.70880469        1.90412252
 C            3.34486495       -0.48232221        1.79181124
 C            1.69666123       -2.02963046        0.88225235
 C           -0.06370583       -2.52377882        2.49346465
 C            0.44706775       -2.58071497        1.18368814
 C           -1.93927251       -1.39989321        3.46906926
 C           -1.44533186       -2.44159017        2.69027104
 C           -1.86520557        0.86027245        2.97469278
 C           -2.65658819       -0.33748619        2.78782621
 C           -0.05306296        2.01408047        1.87820702
 C           -1.34245232        1.47825009        1.85237642
 C            0.40716911        2.71749591        0.76367441
 C            2.69447368        2.23185391        1.46277728
 C            1.76361403        3.01539308        0.68021594
 C            3.46850004        0.11006575        0.54297808
 C            3.51169672        1.50147822        0.50944913
 C            1.92507464       -1.49709907       -0.38614148
 C            2.95267727       -0.56082025       -0.56727219
 C            1.01236768       -1.75212049       -1.41198978
 C           -0.39542189       -2.96787003        0.13959340
 C           -0.09751056       -2.56392727       -1.17182307
 C           -2.27834556       -2.89038406        1.68028072
 C           -1.67755348       -3.40343803        0.46991992
 C           -3.16124051       -0.63074594        1.52414703
 C           -3.32286635       -1.98260332        1.24137993
 C           -1.97974918        1.29745992        0.63129196
 C           -2.90020208        0.24803889        0.45980680
 C           -0.38774631        2.79450881       -0.38665744
 C           -1.59268787        2.08750874       -0.44681512
 C            0.12526348        3.39160639       -1.54208004
 C            2.37812785        3.20949096       -0.62092917
 C            3.40712269        2.18290383       -0.76673565
 C            1.56410930        3.52780539       -1.69773491
 C            3.15977707       -0.00406754       -1.82670677
 C            3.45772290        1.41735682       -1.92401279
 C            1.11519195       -1.07598521       -2.63049563
 C            2.25702104       -0.34070032       -2.90989754
 C           -0.03323092       -0.84770530       -3.38867290
 C           -1.02738415       -2.73148622       -2.20025195
 C           -1.10033418       -1.72571941       -3.24534859
 C           -2.73351875       -3.39029196       -0.52197848
 C           -3.69827406       -2.38608994       -0.09232028
 C           -2.39113494       -3.10334098       -1.89367587
 C           -3.36642438       -0.06805468       -0.82763586
 C           -2.45218581       -1.18491416       -3.22923535
 C           -3.75399428       -1.37613797       -1.12327350
 C           -3.23358982       -2.00073893       -2.32370957
 C           -2.26479445        1.96390148       -1.65494340
 C           -3.05883962        0.77440218       -1.89409156
 C           -2.60055100        0.19025966       -3.15165182
 C           -0.42574669        3.04428128       -2.84267875
 C           -0.27763311        0.43651076       -3.88505711
 C           -1.56910387        2.26422680       -2.89189953
 C           -1.51788831        1.02050113       -3.63880338
 C            1.91662249        3.04087805       -3.02082543
 C            2.83765933        1.92594559       -3.13212307
 C            2.13410414        0.82402883       -3.76676100
 C            0.68799538        2.67085148       -3.69878089
 C            0.80207254        1.28246721       -4.11752672
