   70
C70 / DATE: 7/ 1/2024 / Origin: Program Fullerene / C70 from database
 C            1.43238474        0.15829410        4.99908034
 C            0.65717407       -1.02627985        4.67544936
 C            1.54900551       -1.94416161        4.01418916
 C            2.63106229        0.12962481        4.17628561
 C            2.76677571       -1.21322425        3.67472799
 C            2.53407194        1.21714410        3.22137801
 C            0.65883341        1.31310456        4.58907747
 C            1.49698423        2.10823426        3.71604278
 C           -0.53627938       -0.60164716        3.96991569
 C           -0.61054034        0.84666047        4.06024043
 C           -0.89542987       -1.21175864        2.76760572
 C            1.09705508       -2.58929483        2.79780927
 C           -0.15171243       -2.28319007        2.24917030
 C            2.98487752       -1.40316485        2.25608768
 C            2.23518340       -2.58818840        1.90791388
 C            2.61418373        0.96119649        1.84451819
 C            2.93725258       -0.32043801        1.37171809
 C            2.12649786        1.92486546        0.95805167
 C            0.85852468        2.92057137        2.79974082
 C            1.41712663        3.01227708        1.46959101
 C           -1.16827983        1.54731589        2.99563408
 C           -0.57429558        2.74610049        2.60528147
 C           -1.77297608       -0.53501459        1.93031481
 C           -1.92191487        0.85071632        2.05499461
 C           -2.24412440       -1.17458860        0.78925704
 C           -0.37552255       -2.69349375        0.92507874
 C           -1.45507050       -2.16467499        0.20266922
 C            1.97897311       -2.79411538        0.57222788
 C            0.70864496       -3.23640372        0.22887460
 C            2.77663995       -0.62140056        0.01285566
 C            2.62753562       -1.96699954       -0.33422329
 C            2.05763409        1.65012152       -0.41013292
 C            2.31664950        0.35968757       -0.87291281
 C            1.44559662        2.57308827       -1.25959697
 C            0.38520987        3.62520540        0.66118631
 C           -0.88371112        3.29281139        1.29190515
 C            0.48524960        3.51730933       -0.71145270
 C           -2.52134020        1.55818392        1.01828525
 C           -1.88038611        2.69902644        0.52133673
 C           -3.24225782       -0.55250018        0.04651239
 C           -3.42957619        0.87766453        0.21864389
 C           -3.36043631       -0.84621886       -1.36869292
 C           -1.56732714       -2.42472679       -1.17079909
 C           -2.36084801       -1.59970544       -1.97913898
 C            0.53619345       -3.66866559       -1.07647341
 C           -0.69186034       -3.32566675       -1.76621539
 C            2.53237616       -2.31780921       -1.67210869
 C            1.63335161       -3.41348303       -1.99510920
 C            1.97989009        0.00558295       -2.18696635
 C            2.29394937       -1.26923963       -2.64456419
 C            0.93551044        2.13673144       -2.54909251
 C            1.11075843        0.81320871       -2.93290451
 C           -0.73320501        3.37995065       -1.48471990
 C           -1.90572175        2.96714242       -0.85074051
 C           -0.35429710        2.77947652       -2.75049776
 C           -3.79751038        1.43998244       -1.06315689
 C           -3.87248146        0.34811105       -2.01904404
 C           -2.94964485        2.47136259       -1.62461461
 C           -1.32289875        2.13194553       -3.49936543
 C           -3.24301482        0.79179013       -3.24107792
 C           -2.69346689        2.11877983       -3.01083311
 C           -1.95985883       -1.30169894       -3.29523424
 C            0.22421090        0.24205609       -3.86009811
 C           -2.19100670       -0.02671486       -3.79913688
 C           -1.03336652        0.81580755       -4.03776568
 C           -0.36900596       -3.14565248       -3.16579907
 C            1.07606004       -3.16685864       -3.30658381
 C            1.49743716       -1.83755141       -3.71254011
 C           -0.84430282       -1.94651024       -3.81371307
 C            0.31480656       -1.12009085       -4.12834624
