   70
C70 / DATE: 7/ 1/2024 / Origin: Program Fullerene / C70 from database
 C            1.59582467        0.05259500        4.59600266
 C            0.78782790       -1.14893574        4.50011157
 C            1.43677505       -2.04887007        3.56538952
 C            2.65377380       -0.04345024        3.60364087
 C            2.61405505       -1.37178878        3.03677712
 C            2.52917114        1.07917463        2.70091675
 C            0.75387519        1.17703623        4.23333293
 C            1.39963306        1.87740122        3.14605629
 C           -0.58015287       -0.74991577        4.24005002
 C           -0.59286584        0.68883608        4.01642858
 C           -1.35527935       -1.55755695        3.42355493
 C            0.65987410       -2.81157798        2.69335958
 C           -0.72949644       -2.64505800        2.67884138
 C            1.28670969       -3.35090868        1.57243175
 C            2.91288358       -1.53642825        1.68952004
 C            2.51993639       -2.73681538        1.10996678
 C            2.68500935        0.85986926        1.33185027
 C            3.07560015       -0.40540064        0.87442307
 C            2.10184918        1.76987339        0.44017351
 C            0.60650105        2.45082961        2.16878697
 C            1.20030186        2.71034892        0.94555139
 C           -1.31944708        1.20479207        2.94393331
 C           -0.77946237        2.26417076        2.20006925
 C           -2.33770931       -0.93858248        2.55277111
 C           -2.35861084        0.44492343        2.40358262
 C           -1.46623434       -2.80359567        1.43040418
 C           -2.48033492       -1.77124888        1.36891323
 C            0.50172207       -3.66554872        0.39282490
 C           -0.78427607       -3.14764950        0.27598089
 C            2.59830533       -2.91061596       -0.32869971
 C            1.40083622       -3.62459102       -0.74835968
 C            3.32145415       -0.57553269       -0.48563508
 C            3.08955748       -1.87059437       -1.10457505
 C            2.16658387        1.53710552       -0.93870277
 C            2.87794659        0.44725200       -1.41656659
 C            1.31195171        2.22288054       -1.80276616
 C            0.52166393        3.54999802        0.08053312
 C            0.72163913        3.39636282       -1.34334016
 C           -1.54473583        2.86308290        1.19416619
 C           -0.90286137        3.72336153        0.30094870
 C           -3.08778714        0.96275494        1.34266203
 C           -2.75468136        2.27641492        0.82716591
 C           -2.77085330       -1.15771936        0.15421965
 C           -3.36260766        0.09969031        0.20197092
 C           -1.22122112       -2.65950698       -0.95606702
 C           -2.09687195       -1.56003909       -1.00679981
 C            0.86558514       -3.38749730       -2.00502078
 C           -0.54942451       -3.08024950       -2.09980499
 C            2.54317155       -1.64496300       -2.43268131
 C            2.41999701       -0.20593909       -2.62789817
 C            1.55678953       -2.49371990       -2.91999223
 C            0.86046735        1.60130813       -2.98002337
 C            1.31955086        0.31963923       -3.30275009
 C           -0.28741404        2.06431227       -3.62861114
 C           -0.45821625        3.92968706       -1.99264752
 C           -1.50700109        4.01896152       -0.98733256
 C           -0.99431291        3.22893865       -3.13316587
 C           -3.19514454        2.30762768       -0.56040185
 C           -3.39147802        0.92798012       -0.98474496
 C           -2.62760772        3.21836702       -1.43969872
 C           -2.34584441        2.79903190       -2.80073172
 C           -2.25549023       -0.82168085       -2.19409796
 C           -1.30547910        1.10240470       -3.99743051
 C           -2.78949786        0.46976177       -2.14964266
 C           -2.43980896        1.38851195       -3.13946700
 C           -0.74972526       -2.38319184       -3.34717666
 C            0.56042873       -1.96270419       -3.82889270
 C            0.49210066       -0.52922658       -4.04138305
 C           -1.60737103       -1.21951500       -3.36185556
 C           -0.92004742       -0.21466767       -4.15034855
