   70
C70 / DATE: 7/ 1/2024 / Origin: Program Fullerene / C70 from database
 C            1.19555434       -0.06414665        4.94725626
 C            2.50407890       -0.42006948        4.44040434
 C            2.36921633       -1.70439779        3.76328959
 C            0.35195306       -1.23567821        4.79554364
 C            0.96368366       -2.05930113        3.77365993
 C           -0.98900559       -0.75564582        4.57233675
 C            0.48092989        1.03982106        4.32624240
 C           -0.91736655        0.69269883        4.40347845
 C            0.97920786        1.60543025        3.15234781
 C            3.14515541        0.49123120        3.51546496
 C            2.34910866        1.54105807        2.90312931
 C            3.04327666       -1.59922905        2.48583745
 C            3.69273274       -0.30694615        2.43362129
 C            2.39235960       -2.02344654        1.33833528
 C            0.31006899       -2.24885817        2.55338335
 C            1.06855630       -2.47476286        1.40576034
 C           -1.72132674       -1.25932839        3.43057486
 C           -1.05801023       -1.97610684        2.42802121
 C           -1.77992359        1.02689832        3.29025537
 C           -2.57074182       -0.16020340        3.03485980
 C            0.10986063        1.97961379        2.11378441
 C           -1.26629971        1.72321541        2.19593009
 C            0.64177700        2.45539705        0.91169909
 C            2.82299850        1.67273047        1.54317195
 C            3.55848477        0.46598234        1.20782605
 C            1.97023495        2.17552249        0.58172814
 C            2.86275858       -1.54724756        0.11993678
 C            3.21264749       -0.19766711        0.02729898
 C            2.43795501       -2.20870992       -1.01665808
 C            0.42560927       -2.80504382        0.21458721
 C            1.23492895       -3.00909861       -0.89904995
 C           -1.66448858       -2.05270050        1.16628197
 C           -0.91836297       -2.44206485        0.04567141
 C           -3.19607674       -0.25310204        1.81331267
 C           -2.87908560       -1.39735164        0.97875462
 C           -2.03948103        1.75582851        1.02991443
 C           -3.12967410        0.89603745        0.93391697
 C           -0.21832599        2.83288438       -0.12119161
 C           -1.51902902        2.31586712       -0.13899146
 C            0.37122618        3.24601360       -1.31439352
 C            2.26104245        1.86704435       -0.73748936
 C            2.68738484        0.56769903       -1.02454266
 C            1.61173834        2.60604839       -1.70709917
 C            2.32192476       -1.46213828       -2.25017716
 C            2.22541276       -0.07770333       -2.18023366
 C            0.64381031       -3.09030154       -2.21250341
 C            1.39605861       -2.19450109       -3.08235523
 C           -1.47721025       -2.33515410       -1.24577983
 C           -0.75504719       -2.76348905       -2.35850186
 C           -3.29150680       -1.03526895       -0.35839158
 C           -3.51759671        0.40429403       -0.36553668
 C           -2.65319175       -1.60243238       -1.45110018
 C           -2.19933745        2.13890919       -1.35947044
 C           -3.14243516        1.11025099       -1.49465204
 C           -0.43741098        3.38455527       -2.50520118
 C           -1.77040866        2.82864752       -2.49444163
 C            1.38610826        2.01036082       -3.00361396
 C            1.44318123        0.62227441       -3.11138598
 C            0.29069539        2.75035550       -3.59628213
 C            0.43938318       -1.44947267       -3.86557117
 C           -0.86950291       -2.02750449       -3.60335131
 C            0.55493117       -0.06479258       -3.96262991
 C           -2.88356625       -0.99672458       -2.68834445
 C           -3.22719853        0.41520142       -2.69615841
 C           -1.98882539       -1.23937487       -3.80797164
 C           -1.97956894        2.24897879       -3.81042373
 C           -0.66767239        2.03774212       -4.40348309
 C           -0.49891260        0.61012008       -4.58101345
 C           -2.70571192        1.00152510       -3.90999925
 C           -1.82373292        0.01972709       -4.51962793
