   70
C70 / DATE: 7/ 1/2024 / Origin: Program Fullerene / C70 from database
 C            1.33406139       -0.06043658        4.54385850
 C            2.59845582       -0.25026082        3.85904914
 C            2.55139408       -1.53554716        3.18588415
 C            0.47810499       -1.18957837        4.22643673
 C            1.23967625       -2.11608245        3.40767335
 C           -0.77449626       -0.67618087        3.69743964
 C            0.58431825        1.15162529        4.28206570
 C           -0.71979581        0.77065304        3.74894745
 C            1.24409690        2.23473866        3.71824179
 C            3.02429377        0.74538855        2.88986702
 C            2.44051599        2.00340818        2.91014636
 C            2.98875723       -1.34472763        1.81370831
 C            3.20105880        0.07742681        1.61033879
 C            2.34641095       -2.06504917        0.81419007
 C            0.60354484       -2.70575075        2.32370072
 C            1.36038163       -2.97677615        1.18509868
 C           -1.31248908       -1.29132027        2.57683898
 C           -0.76808774       -2.50537763        2.17040533
 C           -2.04096949       -0.53485180        1.65651620
 C           -1.28297378        1.51680931        2.71401049
 C           -1.92558548        0.86542068        1.65435803
 C            0.44501617        3.22403666        3.02679845
 C           -0.86975536        2.83406332        2.54739104
 C            2.25585430        2.70355358        1.65233653
 C            1.20765207        3.66906460        1.87468288
 C            2.71650486        0.66581439        0.44231843
 C            2.26049383        1.98795098        0.45353639
 C            2.30896109       -1.53440107       -0.47330676
 C            2.42093899       -0.14898136       -0.64768460
 C            1.81810229       -2.32927823       -1.50973116
 C            0.78678419       -3.76754795        0.19853995
 C            1.06801204       -3.46465728       -1.19540562
 C           -1.42852104       -3.22659633        1.18842306
 C           -0.63162658       -4.05628711        0.30438335
 C           -2.68579625       -1.19498039        0.60421082
 C           -2.42384181       -2.54511655        0.37865394
 C           -3.26046036       -0.46051055       -0.42413166
 C           -2.39670867        1.61240781        0.56447985
 C           -3.15333436        0.98407921       -0.41969163
 C           -1.04680769        3.47183777        1.26103770
 C            0.26976865        3.88932212        0.80448831
 C           -1.89518815        2.89645901        0.32131755
 C            1.55761715        2.48616508       -0.65649073
 C            0.62747644        3.53062036       -0.48425110
 C            2.04147455        0.43763696       -1.85108492
 C            1.57437614        1.75492486       -1.85542559
 C            1.74446715       -1.80350569       -2.79527905
 C            1.87661042       -0.36874844       -2.97569118
 C            0.68732954       -2.26394875       -3.67821613
 C           -0.13007705       -3.77690804       -1.96610737
 C           -1.20887595       -3.98484864       -1.02457093
 C           -2.29324150       -3.02214239       -0.99157449
 C           -0.39427280       -3.04177371       -3.10941920
 C           -3.10510768       -0.92225045       -1.79739718
 C           -2.43036561       -2.11498954       -2.03968759
 C           -1.60094548       -2.22007187       -3.16031883
 C           -3.04369467        1.42122226       -1.80231353
 C           -2.84837822        0.23958612       -2.63209547
 C           -1.72542781        3.31614737       -0.99899184
 C           -0.38360722        3.68224579       -1.41895688
 C           -2.34726098        2.58356488       -2.08663268
 C            0.86874066        2.22405431       -2.96376214
 C           -0.17922356        3.19506049       -2.75817378
 C           -1.42811983        2.59987928       -3.20933574
 C            0.95528698        0.03482343       -4.02682437
 C            0.10737688       -1.10303183       -4.32289755
 C           -1.29523526       -1.03479537       -3.94955095
 C           -1.82614165        0.19765613       -3.58086527
 C            0.35818506        1.27842116       -3.93645420
 C           -1.09568714        1.35124276       -3.86905355
