   70
C70 / DATE: 7/ 1/2024 / Origin: Program Fullerene / C70 from database
 C            1.67858106       -0.05043059        4.61519675
 C            0.84067603       -1.22345385        4.45982983
 C            1.41675009       -2.05395451        3.41593332
 C            2.68592319       -0.08885263        3.56954235
 C            2.48553134       -1.29195010        2.79636794
 C            2.64398010        1.17464577        2.87437637
 C            0.84662900        1.11609671        4.37703845
 C            1.53105139        1.94659706        3.41121439
 C           -0.52847035       -0.77372228        4.29646933
 C           -0.48332954        0.65801319        4.04126130
 C           -1.37116087       -1.55860014        3.52841304
 C            0.55371780       -2.76491671        2.58694458
 C           -0.81414098       -2.72410105        2.86325821
 C            0.96602901       -3.06118203        1.28449605
 C            2.51338918       -1.21919001        1.41017958
 C            1.97113847       -2.28296051        0.69643032
 C            2.84221709        1.20059894        1.49686876
 C            2.72187191        0.01002040        0.75946724
 C            2.55196030        2.40562807        0.86963364
 C            0.77668019        2.68525995        2.50633554
 C            1.48139755        3.21287319        1.43091308
 C           -1.07976969        1.17334608        2.89230512
 C           -0.57487007        2.35069294        2.32636861
 C           -2.24031134       -0.91559646        2.55978259
 C           -1.97235397        0.38428041        2.15878683
 C           -1.75628439       -3.08933856        1.82349257
 C           -2.56151216       -1.90367459        1.54676261
 C            0.13169812       -3.84381198        0.48581318
 C           -1.29777492       -3.84323510        0.75639805
 C            0.31512531       -3.87297328       -0.95644867
 C            2.20679275       -2.34616014       -0.66963646
 C            1.32504719       -3.11549319       -1.52818629
 C            2.62900411        0.06305957       -0.64061026
 C            2.56180230       -1.12237124       -1.36248130
 C            2.42281727        2.45443213       -0.57007868
 C            2.32209701        1.26488960       -1.28088763
 C            0.77068585        3.83839071        0.33444174
 C            1.52007574        3.54962623       -0.87856996
 C           -1.29709976        2.94417605        1.29193054
 C           -0.61438149        3.77729300        0.31584504
 C           -2.37648917        0.79524936        0.89167824
 C           -2.27252881        2.13906310        0.57683442
 C           -2.74968901       -1.49861284        0.22423372
 C           -2.57125569       -0.15182009       -0.12189178
 C           -1.98126313       -3.70182937       -0.51201846
 C           -0.99742582       -3.86331759       -1.56802694
 C           -2.70883822       -2.47019058       -0.76708245
 C           -1.28670532       -2.87274305       -2.58492927
 C           -2.42006858       -2.08128585       -2.12662292
 C            1.05573911       -2.31856314       -2.71990484
 C            1.90179511       -1.13226701       -2.65487115
 C           -0.24203494       -2.21605933       -3.23271394
 C            1.69063620        1.26552590       -2.53193154
 C            1.43832484        0.05845983       -3.19969490
 C            0.86514367        3.53753473       -2.09863632
 C            1.16933512        2.46477557       -3.02639831
 C           -1.30329292        3.62908230       -0.95455075
 C           -2.27202527        2.54985877       -0.81017463
 C           -0.57857858        3.73027024       -2.13513917
 C           -2.51908331        0.23447461       -1.47604100
 C           -2.45852912       -0.74329763       -2.48350611
 C           -2.39110236        1.59389078       -1.81510100
 C           -0.57417916       -1.08878765       -3.97879879
 C            0.40134201       -0.02599327       -4.12585781
 C           -1.83741015       -0.43405808       -3.68413469
 C            0.07636910        2.43707597       -3.97372646
 C           -1.07221476        3.02774489       -3.30486601
 C           -2.04350629        1.96571341       -3.11482587
 C           -0.34272373        1.16026027       -4.50180743
 C           -1.72095067        0.94589470       -4.08469152
