   70
C70 / DATE: 7/ 1/2024 / Origin: Program Fullerene / C70 from database
 C            1.48299303       -0.01446706        4.57855438
 C            0.68263715       -1.18918867        4.29621553
 C            1.39632259       -2.00714652        3.33320465
 C            2.65317788       -0.06824824        3.72378286
 C            2.54081341       -1.24060412        2.87181735
 C            2.78341814        1.22442187        3.08641951
 C            0.70901062        1.14833518        4.18183754
 C            1.51719604        1.92327580        3.25826881
 C           -0.65256534       -0.74938966        3.93936705
 C           -0.59274107        0.68811227        3.73536500
 C           -1.34838821       -1.51281411        3.01227879
 C            0.63850037       -2.68925392        2.39509835
 C           -0.74588044       -2.68392749        2.55221821
 C            1.15275412       -2.83770287        1.11026092
 C            2.75939208       -1.09550126        1.50037621
 C            1.98446011       -1.83826600        0.60261392
 C            3.37659177        1.26356468        1.83788576
 C            3.43992471        0.03346570        1.05381646
 C            2.96703492        2.30410948        0.92095527
 C            0.90164321        2.48293177        2.13897655
 C            1.69386674        2.85745330        1.04856310
 C           -1.11472182        1.21665649        2.55997641
 C           -0.47234587        2.30049690        1.95839417
 C           -2.26263303       -0.87108760        2.17941445
 C           -2.02732377        0.45885839        1.81926549
 C           -3.08390361       -1.66009348        1.38108335
 C           -1.49356627       -3.54154822        1.75737509
 C           -2.78691181       -3.07962270        1.28576801
 C            0.47249606       -3.66836207        0.23017464
 C           -0.82098265       -4.18859541        0.64428089
 C            0.36897486       -3.27775676       -1.16334462
 C            1.82030215       -1.40499388       -0.72437554
 C            0.94368234       -2.07662116       -1.57722098
 C            3.35559900        0.41233948       -0.34474918
 C            3.40527303        1.86386881       -0.38436174
 C            2.46782241       -0.25717509       -1.18273095
 C            2.88019890        2.50419756       -1.48697006
 C            1.09828670        3.43065248       -0.07850825
 C            1.82554562        3.47993606       -1.26953463
 C           -1.09893928        2.93401202        0.89743705
 C           -0.28641484        3.59508916       -0.10671755
 C           -2.49547091        0.94551405        0.59444972
 C           -2.17997842        2.24335839        0.21507929
 C           -3.44363682       -1.19101896        0.05456841
 C           -2.99908869        0.06195591       -0.35972105
 C           -2.93090645       -3.48140436       -0.10181495
 C           -1.71066697       -4.15695455       -0.50141566
 C           -0.96287772       -3.63215314       -1.62866134
 C           -3.36135234       -2.32029373       -0.85794041
 C           -1.59866302       -2.78078591       -2.51783192
 C           -2.83750804       -2.11068156       -2.12364700
 C            0.44542200       -1.42503598       -2.70972117
 C           -0.79907891       -1.79826260       -3.22250873
 C            2.01632649        0.38000185       -2.34353065
 C            2.43699436        1.68952327       -2.59734281
 C            0.97996130       -0.19176344       -3.09511022
 C            1.13164359        3.62265566       -2.53906421
 C            1.62613525        2.56829292       -3.41375207
 C           -1.01273240        3.52312445       -1.36630826
 C           -2.09707125        2.56426846       -1.19742609
 C           -0.31777973        3.57489078       -2.56548234
 C           -2.80067158        0.31665630       -1.72377527
 C           -2.75545479       -0.75073320       -2.62123639
 C           -1.72182159       -0.76069840       -3.63436712
 C           -2.29775613        1.55506233       -2.13761336
 C            0.25003747        0.58683511       -4.00108348
 C            0.49855613        2.00894012       -4.11366845
 C           -0.70365535        2.68514855       -3.64351900
 C           -1.19038610        0.44966126       -4.02493711
 C           -1.69911932        1.65448528       -3.39515061
