   70
C70 / DATE: 7/ 1/2024 / Origin: Program Fullerene / C70 from database
 C            1.22411304        0.03941437        4.37226862
 C            2.50925350       -0.24836145        3.78342896
 C            2.55217182       -1.68153676        3.58322627
 C            0.40345555       -1.16353825        4.25225011
 C            1.17749148       -2.13638705        3.52507738
 C           -0.86974894       -0.74744543        3.71011129
 C            0.43928681        1.11524626        3.81092092
 C           -0.93121452        0.67894717        3.94883009
 C            0.81863519        1.69511494        2.59779258
 C            2.83245303        0.36120376        2.50844656
 C            1.87766648        1.14293038        1.86521406
 C            3.37214017       -1.92388103        2.42234291
 C            3.55207523       -0.63859128        1.74656465
 C            3.03070445       -3.01169342        1.63862141
 C            0.70131698       -2.63134197        2.31160940
 C            1.60914281       -3.33991181        1.52690522
 C           -1.28085845       -1.22349615        2.46401801
 C           -0.41372010       -2.02409720        1.70322708
 C           -2.32125019       -0.54005045        1.83082718
 C           -1.88729427        1.39324377        3.26417314
 C           -2.77832752        0.65360044        2.39816546
 C           -0.13634702        2.46149666        1.93223287
 C           -1.43344477        2.50285426        2.45270771
 C            0.06660599        2.80789041        0.59738532
 C            1.85377884        1.18767538        0.46793735
 C            0.98293086        2.07469898       -0.17125368
 C            3.50184206       -0.60870226        0.35424721
 C            2.64436728        0.30449507       -0.28839920
 C            3.57972562       -3.04517183        0.30587075
 C            3.89154261       -1.77104042       -0.31007830
 C            1.31990893       -3.56200152        0.12514104
 C            2.60013603       -3.69016069       -0.54284584
 C           -0.61639978       -2.14125126        0.31676195
 C            0.30591059       -2.82603088       -0.48034215
 C           -2.63237086       -0.81908376        0.50103950
 C           -1.70910984       -1.51487033       -0.28934834
 C           -3.68072589       -0.11631194       -0.09343282
 C           -3.41076253        1.65076729        1.55331019
 C           -2.54541382        2.82583675        1.57625994
 C           -3.96714770        1.23380629        0.35699873
 C           -0.88838820        3.61180346       -0.02111164
 C           -2.27443578        3.49992374        0.39728770
 C           -0.87904510        3.75895734       -1.45676199
 C            0.94618863        2.11892533       -1.57052020
 C            0.02392455        2.93517189       -2.22588385
 C            2.50798786        0.27746452       -1.68565930
 C            1.57614622        1.11441464       -2.30342040
 C            3.60094746       -1.92323011       -1.71248748
 C            2.74975384       -3.10264217       -1.85188868
 C            2.93288466       -0.84294812       -2.40155991
 C            0.34303200       -2.59062622       -1.86104676
 C            1.56092313       -2.65711103       -2.54232865
 C            1.98300929       -1.48973591       -3.28174437
 C           -1.78854032       -1.48045526       -1.68953398
 C           -0.67333341       -1.83734420       -2.44578758
 C           -3.82982763       -0.12916700       -1.52978282
 C           -2.80403380       -0.76551251       -2.32077221
 C           -3.90418336        2.10493774       -0.80480125
 C           -3.06662020        3.21675256       -0.78722474
 C           -2.23212101        3.51251906       -1.93991947
 C           -3.94894237        1.25207095       -1.98031947
 C           -0.73299248        2.38923308       -3.33798901
 C           -2.45429036        0.14515952       -3.39643051
 C           -2.14374686        2.55702463       -3.03099436
 C           -2.98964471        1.45163875       -3.05386992
 C            1.01404513        0.70636748       -3.51714572
 C            0.99472061       -0.70522416       -3.83030743
 C           -0.37689567       -1.10738031       -3.60092629
 C           -0.29388785        1.20491660       -3.90294554
 C           -1.18515339        0.04983065       -3.94233769
