   70
C70 / DATE: 7/ 1/2024 / Origin: Program Fullerene / C70 from database
 C            1.32694265       -0.02936094        4.20297746
 C            2.42938410       -0.26435785        3.28675880
 C            2.43321957       -1.68805980        3.01554642
 C            0.44227812       -1.18305116        4.11502660
 C            1.06876577       -2.14320523        3.23391908
 C           -0.87665869       -0.69672162        3.78327846
 C            0.51669116        1.16361174        4.03900064
 C           -0.87356597        0.73940134        3.99002423
 C            0.95935864        2.16050454        3.17919894
 C            2.64988513        0.62898036        2.23933233
 C            2.10148650        1.90475557        2.31024256
 C            3.14765490        0.15466158        1.02178942
 C            3.10809616       -2.14588166        1.89761391
 C            3.59349383       -1.16747635        0.93794279
 C            2.50180593       -3.22236220        1.13678224
 C            0.34993655       -2.66549440        2.15999318
 C            1.05788454       -3.37665544        1.19165122
 C           -1.54473752       -1.21115345        2.67670087
 C           -0.91096181       -2.14192565        1.83670250
 C           -2.67645197       -0.53328694        2.22195109
 C           -1.80189955        1.50379298        3.29706690
 C           -2.82665875        0.82235690        2.52379496
 C           -0.00671948        2.94762683        2.42859464
 C           -1.35786553        2.64604790        2.50802713
 C            1.90933818        2.66537894        1.09314856
 C            0.57628147        3.24721162        1.13364491
 C            3.02628990        0.92451225       -0.14470293
 C            2.37870316        2.16533065       -0.11425122
 C            3.39614575        0.37356749       -1.37214378
 C            3.65890221       -1.82904432       -0.35424372
 C            2.88388324       -3.05200461       -0.25256803
 C            3.52486780       -1.06562834       -1.50042174
 C            0.56630122       -3.40971672       -0.17591321
 C            1.68867117       -3.18682615       -1.06673893
 C           -1.47367223       -2.44373562        0.59307999
 C           -0.64636772       -2.80425200       -0.46274745
 C           -3.40909808       -1.07192144        1.17255964
 C           -2.77154499       -2.04921467        0.31151943
 C           -4.18954591       -0.18006391        0.33287198
 C           -3.25024649        1.74538684        1.48353428
 C           -2.16072997        2.68462663        1.29617522
 C           -3.89643685        1.24098956        0.36885987
 C           -0.20645528        3.21207365       -0.01933600
 C           -1.53329672        2.77137674        0.05288922
 C            1.82003226        2.68478503       -1.28100251
 C            0.45761122        3.19392294       -1.23871544
 C            2.77077461        0.85149723       -2.59492496
 C            2.00927157        2.00956146       -2.55175530
 C            2.56132293       -1.47915556       -2.50746123
 C            1.51730897       -2.33596869       -2.15061040
 C            2.28369864       -0.31115305       -3.32670455
 C           -0.86322463       -2.24995640       -1.72768477
 C            0.22455902       -2.05674337       -2.59544704
 C           -3.12593073       -1.74260586       -1.06448559
 C           -4.05685807       -0.62701717       -1.04116115
 C           -2.13952975       -1.76446363       -2.04997656
 C           -3.41234326        1.61572079       -0.94905501
 C           -2.17510303        2.25251820       -1.08155125
 C           -3.75890692        0.53484960       -1.85759936
 C           -0.22965650        2.72879849       -2.42534207
 C            0.75474440        2.08264540       -3.28463620
 C           -1.50866673        2.19582762       -2.30947115
 C            1.07309806       -0.24547883       -4.00229788
 C            0.08189013       -1.27061532       -3.73435198
 C            0.36638644        1.02236861       -4.09334531
 C           -2.31267750       -0.93599684       -3.15745266
 C           -2.97474110        0.34756688       -2.98226695
 C           -1.98826145        1.35624354       -3.31387537
 C           -1.21048840       -0.71863016       -4.06778427
 C           -1.04766430        0.72068542       -4.22017350
