   70
C70 / DATE: 7/ 1/2024 / Origin: Program Fullerene / C70 from database
 C            1.40052510       -0.20138012        5.28607719
 C            0.55954852       -1.38491883        5.24117863
 C            1.20829890       -2.35369884        4.37854748
 C            2.53648447       -0.42446470        4.40816546
 C            2.47530343       -1.79507530        3.93770698
 C            2.56602506        0.64931827        3.42575264
 C            0.63807260        0.90023798        4.73219431
 C            1.44453442        1.53125053        3.69994458
 C           -0.69902775       -1.01762968        4.61256934
 C           -0.67231737        0.40451164        4.34937987
 C            0.24513102       -2.76485814        3.37013388
 C           -0.92253235       -1.90950094        3.49166962
 C            0.70293328       -3.05854492        2.09301387
 C            2.88163427       -2.05937127        2.63917820
 C            2.06859390       -2.94252917        1.82405364
 C            2.86827108        0.34705357        2.09866980
 C            3.26136102       -0.95142183        1.77249224
 C            2.39024293        1.18380457        1.08675767
 C            0.77825388        2.09235480        2.61867694
 C            1.44017562        2.16443967        1.39541332
 C           -1.18861061        0.86155992        3.14511290
 C           -0.60934175        1.99950238        2.59869076
 C           -1.48191388       -1.39147905        2.32565220
 C           -1.81578034       -0.03615755        2.27148643
 C           -0.19301483       -2.96087863        1.03077728
 C           -1.27454690       -2.07531642        1.13031334
 C            0.25432491       -3.34689575       -0.22486954
 C            2.50315261       -2.73749823        0.45307271
 C            3.11507653       -1.41882245        0.39996294
 C            1.64365478       -3.10263977       -0.56653234
 C            2.59876482        0.82797420       -0.24614974
 C            2.70839148       -0.52005223       -0.58271024
 C            2.28694316        1.74414277       -1.23824068
 C            0.83003113        2.87827288        0.36112294
 C            1.38766888        2.83529343       -0.91182018
 C           -1.28445040        2.61417424        1.56264551
 C           -0.50795779        3.23124936        0.50250775
 C           -2.36225028        0.47951601        1.09174503
 C           -2.34004817        1.85818524        0.91978742
 C           -1.91460043       -1.62250295       -0.02668777
 C           -2.46441820       -0.33210229       -0.04265148
 C           -0.53947701       -3.02316986       -1.38892083
 C           -1.72437858       -2.31871927       -1.22447069
 C            1.63511932       -2.31181011       -1.78200262
 C            2.08566418       -0.99974940       -1.74368507
 C            0.37509398       -2.58737571       -2.43250139
 C            1.91482148        1.24906983       -2.54878735
 C            1.59605243       -0.09764371       -2.68946298
 C            0.55950505        3.09451953       -2.08490661
 C            1.07344107        2.25602580       -3.16340699
 C           -1.36954260        3.28430442       -0.66493891
 C           -2.50492537        2.41098239       -0.40569355
 C           -0.81777633        3.28927031       -1.94208874
 C           -2.95002095        0.20754773       -1.24304303
 C           -2.94951321        1.59940350       -1.43619098
 C           -2.33152409       -1.85423921       -2.38409789
 C           -3.13143025       -0.65119086       -2.32477399
 C           -0.11433814       -1.68982470       -3.36882046
 C            0.57361004       -0.48266501       -3.57264480
 C           -1.49189177       -1.72150756       -3.56113259
 C            0.22726476        1.87921811       -4.19210777
 C            0.05542077        0.46049443       -4.46749360
 C           -1.66258841        2.96321651       -3.00189711
 C           -2.81921368        2.12681888       -2.71876002
 C           -1.08325088        2.49070490       -4.24372721
 C           -3.18711802       -0.12604827       -3.68085245
 C           -2.11671935       -0.75965165       -4.43922266
 C           -1.28714863        0.28326928       -4.99975815
 C           -3.07403564        1.29927685       -3.87638741
 C           -2.00368692        1.53437046       -4.83301508
