   70
C70 / DATE: 7/ 1/2024 / Origin: Program Fullerene / C70 from database
 C            1.21655357       -0.00834849        4.31988582
 C            2.51652840       -0.40069422        3.82797614
 C            2.44107457       -1.80592951        3.45350337
 C            0.37417456       -1.19152302        4.31016893
 C            1.04273406       -2.19545013        3.51526884
 C           -0.94315506       -0.77646687        3.89794799
 C            0.49408751        1.03632179        3.62055907
 C           -0.90069687        0.64409798        3.58904030
 C            1.03619276        1.61775548        2.48396212
 C            3.07400789        0.31215070        2.69799084
 C            2.34724096        1.32733281        2.07485230
 C            3.16135546       -1.96568548        2.20296772
 C            3.74075519       -0.67232624        1.87032397
 C            2.59125258       -2.73723561        1.19857654
 C            0.41335413       -2.67480079        2.36580863
 C            1.19865683       -3.14900666        1.31394208
 C           -1.66044927       -1.58477959        3.03462987
 C           -0.95091011       -2.41727023        2.14808020
 C           -2.86744376       -1.04858370        2.61702810
 C           -1.72627393        1.10675787        2.55962876
 C           -2.88867354        0.37678405        2.32021266
 C            0.17294436        2.26603424        1.60884701
 C           -1.15940382        1.84810903        1.51155107
 C            0.72038701        3.06820855        0.62345651
 C            2.78903238        1.78512680        0.83037083
 C            2.07693459        2.79157251        0.18799826
 C            3.98310061       -0.35067634        0.54326135
 C            3.64584766        0.98588631        0.07646830
 C            2.84412593       -2.40390121       -0.19443310
 C            3.60203019       -1.28460107       -0.50686834
 C            0.64366833       -3.20243727       -0.02566382
 C            1.62916790       -2.66587560       -0.94800530
 C           -1.51369594       -2.74717814        0.90465345
 C           -0.68671326       -2.87617241       -0.21135393
 C           -3.61603923       -1.73218853        1.59251426
 C           -2.88524681       -2.61185987        0.71021134
 C           -3.60805809        0.55270612        1.07550808
 C           -4.25268281       -0.71604455        0.77561442
 C           -1.85637419        2.01716933        0.30266870
 C           -3.01846364        1.27776484        0.04473199
 C           -0.06907490        3.40417346       -0.54217620
 C           -1.33490790        2.84598680       -0.69634286
 C            2.10223317        2.87742969       -1.26570728
 C            0.83907851        3.47484841       -1.67876133
 C            3.45951250        0.89975086       -1.36075049
 C            3.25243535       -0.50318887       -1.67974635
 C            2.67419426        1.84425663       -2.01264553
 C            1.22296208       -1.77113983       -1.93856097
 C            2.14448100       -0.85108406       -2.44734752
 C           -1.07466887       -2.32226497       -1.42996692
 C           -0.14578101       -1.60906718       -2.19051043
 C           -3.38378224       -2.37659508       -0.63350576
 C           -4.23208052       -1.19351622       -0.58856298
 C           -2.42528008       -2.18773427       -1.70973633
 C           -3.39376607        1.00751756       -1.27686913
 C           -3.75981295       -0.29219381       -1.61572220
 C           -2.86392580       -1.04112778       -2.47770336
 C           -1.91244275        2.82857620       -1.96092294
 C           -2.83170090        1.76156405       -2.29553284
 C            0.35129245        3.23930342       -2.95562229
 C           -1.07584673        3.04512360       -3.13290146
 C            2.08839886        1.46398894       -3.21769559
 C            1.72882075        0.06515935       -3.40398868
 C            1.03405296        2.27450103       -3.79625461
 C           -0.58530709       -0.70561821       -3.16733592
 C           -1.93073151       -0.31139997       -3.20357539
 C           -2.23318645        1.03458316       -3.40033209
 C           -1.26440517        1.90902985       -4.02361771
 C            0.36121146        0.02691506       -3.88104602
 C            0.03710049        1.36747930       -4.34044419
