   70
C70 / DATE: 7/ 1/2024 / Origin: Program Fullerene / C70 from database
 C            1.23875270       -0.08251468        4.49806810
 C            2.58218317       -0.33695975        4.01551725
 C            2.62673763       -1.70513040        3.53280409
 C            0.43999337       -1.26925924        4.23831174
 C            1.27406915       -2.23928278        3.56398104
 C           -0.77728136       -0.84834639        3.58970920
 C            0.51465478        1.06512915        3.97858290
 C           -0.76288481        0.59780267        3.46909866
 C            1.20101996        2.03463591        3.26577214
 C            3.12483237        0.51751584        2.97454810
 C            2.52878676        1.74385049        2.72688841
 C            3.33833422       -1.70859946        2.26652789
 C            3.47508249       -0.32339240        1.84168244
 C            2.97047083       -2.65347340        1.32546828
 C            0.79488055       -2.88588653        2.42582074
 C            1.74574787       -3.40406179        1.55044641
 C           -1.26098894       -1.57491794        2.51742043
 C           -0.50540684       -2.61807670        1.95624663
 C           -2.24415471       -0.97665468        1.74998755
 C           -1.31165006        1.17292534        2.31825859
 C           -2.18607259        0.40829408        1.54208287
 C            0.48696090        2.78990506        2.25289299
 C           -0.73820526        2.32450031        1.76795158
 C            2.55372974        2.26326731        1.37367305
 C            1.48826369        3.24098329        1.30647047
 C            3.07896976        0.05554035        0.55353943
 C            2.73439445        1.38740793        0.30120518
 C            2.95174205       -2.26872093       -0.07078323
 C            2.80057825       -0.92388157       -0.40264083
 C            1.32936358       -3.92000206        0.26689439
 C            2.13436856       -3.25414594       -0.74624195
 C           -0.97081913       -3.23989169        0.78050083
 C           -0.05696254       -3.78227802       -0.11820199
 C           -2.93877126       -1.78715517        0.87541101
 C           -2.21925912       -2.88649275        0.26782513
 C           -3.77872024       -1.18550499       -0.13453989
 C           -2.77952274        0.98079298        0.41394677
 C           -3.70070388        0.24662514       -0.33036504
 C           -1.18557822        2.79411796        0.52832819
 C           -2.25689884        2.16403617       -0.11319580
 C            1.06252720        3.64598792        0.05980714
 C           -0.36166712        3.65510448       -0.19954763
 C            2.25052401        1.75845078       -0.95799588
 C            1.66457847        3.01907436       -1.10049971
 C            2.12605441       -0.57047998       -1.57428482
 C            2.03393254        0.77698765       -1.93147246
 C            1.23763739       -2.80579393       -1.78659687
 C           -0.08212603       -3.32714181       -1.50053402
 C            1.32453073       -1.50624236       -2.24254389
 C           -2.35242286       -2.72298120       -1.17237358
 C           -3.45410367       -1.81667974       -1.40499902
 C           -1.19790958       -2.61557983       -1.94214096
 C           -3.78289632        0.46002480       -1.76061661
 C           -3.28823340       -0.76052527       -2.37665760
 C           -2.63832486        2.58265627       -1.39345977
 C           -3.35254228        1.67033014       -2.27410823
 C           -0.50055832        3.73226866       -1.64048843
 C            0.76797945        3.28158155       -2.21110893
 C           -1.69879453        3.33275075       -2.21068981
 C            1.39471989        1.10806415       -3.13070916
 C            0.77291629        2.41128799       -3.28892331
 C            0.28980192       -1.04714439       -3.03754037
 C           -1.01644266       -1.49079606       -2.77132289
 C           -2.12349977       -0.70128523       -3.13746253
 C            0.51028642        0.12750617       -3.73269271
 C           -2.64651994        1.65178726       -3.54337219
 C           -1.69065787        2.74412203       -3.53795875
 C           -0.44001803        2.23913185       -4.07022769
 C           -1.94167465        0.43681199       -3.92155388
 C           -0.60713312        0.81802029       -4.32781917
