   70
C70 / DATE: 7/ 1/2024 / Origin: Program Fullerene / C70 from database
 C            1.14179840        0.17189901        4.96833692
 C            2.47554304        0.04249501        4.42321278
 C            2.62335755       -1.33978289        4.01699389
 C            0.39104830       -1.01527192        4.56610055
 C            1.28306634       -1.85433412        3.79769711
 C           -0.84180058       -0.56818751        3.95357425
 C            0.36357136        1.32306258        4.57004392
 C           -0.96571125        0.83785482        4.26017989
 C            0.79931157        2.09315245        3.41551913
 C            2.83844393        0.85309414        3.26992855
 C            1.86043312        1.62718752        2.64505239
 C            3.54506105       -1.34370362        2.90268869
 C            3.71896183        0.03888881        2.46794152
 C            3.18331791       -2.10133913        1.72510804
 C            0.91918635       -2.24751257        2.51030145
 C            1.92480670       -2.69508569        1.64913663
 C           -1.16237254       -0.98148530        2.66187783
 C           -0.33389696       -1.88183171        1.98318971
 C           -2.08723953       -0.23167561        1.93035725
 C           -1.48561188        1.69275046        3.22178209
 C           -0.40534856        2.53691297        2.75516256
 C           -2.26946384        1.12680510        2.23359109
 C           -0.38088324        2.79806477        1.39429402
 C            1.75815608        1.65753477        1.24205280
 C            0.71862527        2.37547366        0.63414055
 C            3.56698719        0.05974611        1.02847899
 C            3.62671307       -1.31881244        0.59047642
 C            2.61706609        0.88987828        0.44000230
 C            3.07879052       -1.62642772       -0.64153992
 C            1.56114502       -3.21344910        0.41634420
 C            2.34864044       -2.80699956       -0.73244927
 C           -0.67376595       -2.27145433        0.68249788
 C            0.17256491       -3.13589352        0.00657401
 C           -2.49794969       -0.69748898        0.67730467
 C           -1.67009519       -1.58184256       -0.02185633
 C           -3.44621140        0.05017372       -0.01299066
 C           -2.60783305        1.96822644        1.18624724
 C           -1.61726763        2.86660844        0.75937506
 C           -3.52585869        1.46756282        0.27909978
 C           -1.62194104        3.34279561       -0.54235449
 C            0.60324391        2.36685222       -0.76300934
 C           -0.44750690        3.07194243       -1.34846742
 C            2.26266510        0.62087213       -0.88522296
 C            2.70839852       -0.57145651       -1.47196551
 C            1.25597042        1.37415552       -1.49780581
 C            2.31275761       -0.88608774       -2.76481377
 C            1.53159185       -3.02170578       -1.90561203
 C            0.15464301       -3.16309472       -1.44184512
 C            1.76995014       -2.21748420       -3.00841824
 C           -1.75673777       -1.68535605       -1.42729813
 C           -0.85479535       -2.50107570       -2.13288943
 C           -3.59122464       -0.11239712       -1.44301449
 C           -2.72141685       -0.94566288       -2.13342546
 C           -3.77395400        2.18201026       -0.95257602
 C           -2.79928801        3.16446295       -1.36766757
 C           -3.89833524        1.19593249       -2.00895611
 C           -0.89860125        2.72066865       -2.68231233
 C           -2.35308834        2.81547871       -2.70282869
 C           -3.12278986        1.66306101       -3.14523535
 C            0.86633166        1.09047086       -2.81559847
 C            1.50211829        0.05929419       -3.50432459
 C           -0.29424744        1.66506854       -3.35134506
 C            0.69942249       -2.07521997       -3.96824428
 C           -0.65437741       -2.29443380       -3.49804679
 C            0.75428719       -0.71727298       -4.47335899
 C           -2.53133801       -0.67314160       -3.48639906
 C           -2.47442821        0.71303711       -3.91484984
 C           -1.08188590        0.93700720       -4.24565819
 C           -1.48501690       -1.35545814       -4.21090105
 C           -0.60569314       -0.32805629       -4.76138340
