   70
C70 / DATE: 7/ 1/2024 / Origin: Program Fullerene / C70 from database
 C            1.30757171        0.11059609        4.99165767
 C            0.53347892       -1.09403712        4.76533045
 C            1.41081101       -2.08090965        4.17789835
 C            2.59859623       -0.07021146        4.34672543
 C            2.68404690       -1.43731800        3.89365981
 C            2.74648712        0.98049697        3.36475942
 C            0.62315127        1.20678100        4.32269869
 C            1.56311783        1.82740744        3.42857862
 C           -0.65744293       -0.71930486        4.03086889
 C           -0.60451866        0.70372363        3.75318161
 C           -1.12523108       -1.53896528        3.01698596
 C            0.97509812       -2.74311949        2.96415963
 C           -0.32165159       -2.57071059        2.50693640
 C            2.99663954       -1.68086204        2.49768758
 C            2.04474926       -2.65837973        1.99192043
 C            3.28578801        0.70149444        2.10670140
 C            3.38141463       -0.63179307        1.66282420
 C            3.19126950        1.72980198        1.17208727
 C            1.10093042        2.36706098        2.23720842
 C            2.07896382        2.65590092        1.30239497
 C           -0.99184592        1.13595213        2.48126156
 C           -0.19409595        2.05405353        1.77886277
 C           -2.07255991       -0.98882671        2.16451138
 C           -1.90033545        0.34446001        1.77256336
 C           -2.71229389       -1.86781588        1.30940867
 C           -0.59960045       -3.02010652        1.22192565
 C           -1.93277613       -2.99672140        0.84361244
 C            1.71870320       -2.63786364        0.63373404
 C            0.39169629       -2.86642074        0.23854324
 C            3.42959828       -0.91086699        0.29700549
 C            2.58019569       -1.96803269       -0.23178904
 C            3.38175208        1.46754634       -0.24201929
 C            3.46478817        0.16199217       -0.67876400
 C            1.68319628        3.06979345       -0.01455327
 C            2.54665728        2.40234751       -0.97162838
 C           -0.56891601        2.42699344        0.47605127
 C            0.33319666        3.15561602       -0.31345463
 C           -2.33775198        0.76057184        0.51189087
 C           -1.69079540        1.82942817       -0.12415855
 C           -3.44760868       -1.34697520        0.18233535
 C           -3.27487678       -0.01622764       -0.18226895
 C           -2.27271342       -3.22976924       -0.53968145
 C           -3.38984184       -2.36042129       -0.85259175
 C            0.02128330       -2.63935169       -1.09763057
 C           -1.24855686       -2.99742354       -1.53121446
 C            2.10914139       -1.55150465       -1.54116080
 C            2.68125212       -0.25075785       -1.83242635
 C            0.79189431       -1.80049518       -1.90018148
 C            1.97867706        2.03810765       -2.18548762
 C            1.90283782        0.67646938       -2.51840499
 C            0.03153489        3.38722218       -1.64755269
 C            0.97107106        2.88131151       -2.64007401
 C           -2.11333420        2.25210126       -1.39172826
 C           -1.29687299        3.10139448       -2.13371522
 C           -3.67318397        0.36117933       -1.46167833
 C           -3.16340543        1.59228246       -2.02822718
 C           -3.22482427       -1.91341415       -2.21515758
 C           -1.86246061       -2.25339352       -2.61821858
 C           -3.68852493       -0.64561466       -2.52281080
 C            0.17535128       -0.98430551       -2.85763806
 C            0.80831434        0.20662319       -3.25248847
 C           -1.11369368       -1.30408172       -3.31481119
 C            0.20964612        2.49067272       -3.80360116
 C           -1.16130704        2.90345139       -3.56806487
 C            0.17649077        1.08437968       -4.12762887
 C           -3.13064612        1.40587196       -3.47129094
 C           -3.15205846       -0.02163506       -3.71028858
 C           -1.81362384       -0.40388874       -4.11794947
 C           -2.00868001        1.93044800       -4.21848850
 C           -1.16336417        0.79799228       -4.58714293
