   70
C70 / DATE: 7/ 1/2024 / Origin: Program Fullerene / C70 from database
 C            1.28937332        0.13002981        4.69570621
 C            2.54341325        0.01770486        3.98336379
 C            2.54934295       -1.26578593        3.30151381
 C            0.47095872       -1.01985138        4.33726029
 C            1.21671546       -1.82697201        3.39134443
 C           -0.83441041       -0.53232919        3.94467635
 C            0.49049627        1.32256664        4.50458684
 C           -0.85841642        0.90207920        4.16828456
 C            0.89885706        2.30372102        3.51325558
 C            2.90239681        1.03335307        3.00653490
 C            2.11253788        2.17312044        2.83210604
 C            3.11469462       -1.06373748        1.98262624
 C            3.42264853        0.34690070        1.83262257
 C            2.54733391       -1.71815926        0.90404211
 C            0.59412509       -2.23881339        2.21599027
 C            1.37369339       -2.45878029        1.08358747
 C           -1.40819691       -1.01350755        2.77592911
 C           -0.77393593       -2.02960116        2.05187037
 C           -2.31134057       -0.19247928        2.11318287
 C           -1.34155369        1.75659850        3.09302493
 C           -0.29140645        2.70237305        2.77270487
 C           -2.04668204        1.17346670        2.05097006
 C           -0.14348290        3.14177427        1.46091001
 C            2.28401500        2.90997829        1.66474819
 C            1.12655606        3.55998553        1.07535821
 C            3.27305544        0.94992052        0.58340900
 C            3.03224170        2.31869577        0.56658844
 C            2.83197340       -1.22687071       -0.36085323
 C            2.92484927        0.15939038       -0.52697128
 C            2.49401462       -2.02654246       -1.44200394
 C            0.78443001       -3.04295282       -0.03658542
 C            1.55673075       -3.10277763       -1.19695671
 C           -1.39043046       -2.50098812        0.88972185
 C           -0.61589930       -3.08358789       -0.12102364
 C           -3.09445450       -0.76313176        1.12773886
 C           -2.67526010       -2.04359476        0.59296286
 C           -3.51373028        0.05766325        0.00855927
 C           -2.06985557        1.80807812        0.80995652
 C           -1.07204888        2.74310472        0.48336444
 C           -2.91711533        1.30439633       -0.17860184
 C           -0.88738159        3.13692703       -0.85244226
 C            1.41938139        3.76036512       -0.32565794
 C            2.58380571        2.95189360       -0.65305693
 C            0.39256704        3.45370236       -1.29203354
 C            2.39404742        0.74578830       -1.68907818
 C            2.23228547        2.11586250       -1.77904907
 C            0.98922920        2.61902261       -2.32265546
 C            2.07131764       -1.38840227       -2.66964112
 C            1.72591204       -0.04860114       -2.61402475
 C            0.94965662       -3.43212896       -2.46871756
 C            1.22023040       -2.32149227       -3.37186745
 C           -1.24291016       -3.50748502       -1.29683008
 C           -0.46805920       -3.70079550       -2.50649026
 C           -3.19447486       -2.14168714       -0.76051146
 C           -3.72201865       -0.83339087       -1.12417799
 C           -2.49847578       -2.89447098       -1.69441081
 C           -3.54781903       -0.35008685       -2.41342346
 C           -2.90092673        1.87114177       -1.44419036
 C           -1.76950858        2.68685334       -1.82628832
 C           -3.25538035        1.06032144       -2.59912557
 C            0.14763116        1.75441400       -3.01845351
 C            0.51911153        0.40585655       -3.17701519
 C           -1.20161942        2.09369848       -3.02686293
 C           -2.16791362        1.16458854       -3.55988421
 C           -0.04559291       -1.85121576       -3.88288599
 C           -1.04417659       -2.84847980       -3.53246049
 C           -2.33832598       -2.39419645       -3.05382420
 C           -2.72700530       -1.09452129       -3.35499467
 C           -0.38027034       -0.50400811       -3.76821702
 C           -1.72955031       -0.17391132       -3.87723444
