   70
C70 / DATE: 7/ 1/2024 / Origin: Program Fullerene / C70 from database
 C            1.60994123       -0.06023374        4.61247571
 C            0.76434361       -1.21710472        4.40881482
 C            1.30872970       -1.98142232        3.30080848
 C            2.61676069       -0.06215907        3.56436773
 C            2.35282237       -1.17868391        2.68747493
 C            2.63001173        1.25593631        2.98312526
 C            0.78117768        1.11642162        4.41613083
 C            1.49403887        1.98830173        3.52226600
 C           -0.60359180       -0.74717512        4.29884952
 C           -0.53382559        0.67621259        4.00914613
 C           -1.47832881       -1.51967496        3.55937171
 C            0.41492815       -2.63872699        2.46732965
 C           -0.93638126       -2.64801144        2.82119489
 C            0.75348711       -2.80263149        1.12589876
 C            2.30444181       -0.96138086        1.31239393
 C            1.62358058       -1.88711102        0.51967038
 C            2.87341296        1.39427862        1.61973591
 C            2.64134689        0.29303044        0.77542267
 C            2.65514644        2.67132261        1.11565768
 C            0.77443058        2.75115319        2.61916418
 C            1.56660920        3.43056032        1.71035671
 C           -1.06688734        1.16301309        2.81026126
 C           -0.47307177        2.26646520        2.17415302
 C           -2.37764319       -0.85295451        2.64125011
 C           -2.02434881        0.39853157        2.13286951
 C           -1.93028671       -2.99974224        1.82031041
 C           -2.86433494       -1.88280795        1.74032619
 C           -0.08380240       -3.57759633        0.33708686
 C           -1.50170168       -3.61477323        0.65289485
 C            0.04911105       -3.53334328       -1.10167379
 C            1.66159989       -1.75848040       -0.87162828
 C            0.99464589       -2.69388111       -1.67861173
 C            2.50819954        0.48581609       -0.60629219
 C            2.24634459       -0.61263705       -1.42607140
 C            2.59248730        2.87861164       -0.31266702
 C            2.45296516        1.77871607       -1.15025397
 C            0.92601550        4.18587717        0.66726988
 C            1.74284286        4.03823843       -0.52260028
 C           -0.97015548        2.68161643        0.92832174
 C           -0.42066410        3.80674210        0.31375549
 C           -2.41468649        0.75041769        0.83695582
 C           -1.79446817        1.82206111        0.19284441
 C           -3.36987290       -1.50055518        0.50884174
 C           -3.21858853       -0.11727894        0.09283767
 C           -2.22863934       -3.38642334       -0.58357876
 C           -1.28940073       -3.59047773       -1.67187441
 C           -3.14331556       -2.34176699       -0.65681186
 C           -1.51475916       -2.96994329       -2.89261096
 C            0.93110737       -2.51531128       -3.05685000
 C           -0.35893515       -2.65304172       -3.71245098
 C            2.23882128       -0.41506953       -2.80064819
 C            1.59976438       -1.38789074       -3.66228028
 C            1.92785409        1.97355039       -2.43376487
 C            1.87200062        0.89268007       -3.30057794
 C            0.83910765        4.03152699       -1.65001542
 C           -0.51751175        3.95238932       -1.12350874
 C            0.97430533        2.97154493       -2.62639958
 C           -1.86852527        1.91767375       -1.20610194
 C           -1.21234734        2.93258182       -1.87794127
 C           -0.36831230        2.56485817       -2.99662688
 C           -3.11926722       -0.10427988       -1.35556056
 C           -3.15502839       -1.47794312       -1.82652351
 C           -2.41575798       -1.82480854       -2.94928838
 C           -2.25890467        0.80928238       -1.94590595
 C           -0.63302834       -1.40037121       -4.39023267
 C            0.61822552       -0.67916858       -4.47405995
 C            0.64282742        0.70357106       -4.04915303
 C           -0.51836934        1.30225052       -3.56206851
 C           -1.74585164       -0.77587879       -3.69995327
 C           -1.57284087        0.48550719       -3.12504821
