   70
C70 / DATE: 7/ 1/2024 / Origin: Program Fullerene / C70 from database
 C            1.46953924        0.11596114        4.76112263
 C            0.68717373       -1.09729085        4.62067731
 C            1.48829244       -2.05789546        3.89914123
 C            2.64760967       -0.02085775        3.91952424
 C            2.68739262       -1.37811790        3.43007532
 C            2.62142297        1.05502822        2.95112112
 C            0.67647735        1.21565185        4.23602134
 C            1.46838847        1.88559127        3.23798518
 C           -0.59943351       -0.73066457        4.06587904
 C           -0.61107584        0.70148852        3.82999195
 C           -1.19140135       -1.53446206        3.10337226
 C            0.89176647       -2.72411672        2.75786568
 C           -0.46194575       -2.55973441        2.47869230
 C            2.77860593       -1.59273419        1.99813186
 C            1.82209481       -2.62500511        1.65302258
 C            2.91072833        0.80376209        1.60855819
 C            2.92459107       -0.51389932        1.12830233
 C            2.61477550        1.82436807        0.70250448
 C            0.82968454        2.44613734        2.14676475
 C            1.63735856        2.75787994        1.06918487
 C           -1.18052456        1.16527987        2.64118116
 C           -0.51616203        2.14231660        1.88282553
 C           -2.24890501       -0.97800404        2.40035838
 C           -2.14793328        0.36883881        2.02385427
 C           -3.00245911       -1.84587153        1.63064706
 C           -0.91854121       -3.02621863        1.24295113
 C           -2.28453908       -2.92155760        0.98019572
 C            1.29974400       -2.63712662        0.36672444
 C           -0.00751067       -3.08734019        0.17889596
 C            2.66589385       -0.73071361       -0.22426671
 C            1.88645207       -1.83108805       -0.61249871
 C            2.88623442        1.61834504       -0.65054914
 C            2.90110050        0.30247547       -1.12580442
 C            2.72121628        2.69226158       -1.52555552
 C            1.08900566        3.58210393        0.10745406
 C            1.77433936        3.72226277       -1.15927341
 C           -1.05885759        2.54022447        0.64878743
 C           -0.33064192        3.43131604       -0.15016912
 C           -2.72943795        0.80438718        0.83066294
 C           -2.07231701        1.77016912        0.05977685
 C           -3.95521878       -1.30030141        0.69211745
 C           -3.78676274        0.07798172        0.28634005
 C           -2.78260946       -3.02542097       -0.38021877
 C           -3.91780298       -2.12608068       -0.50299273
 C           -0.46109840       -3.25894042       -1.12350721
 C           -1.87715050       -3.14152461       -1.42485427
 C            1.46603584       -1.96207810       -1.94175595
 C            0.27934000       -2.64340381       -2.21135631
 C            2.78982532        0.02766038       -2.48429257
 C            1.92549631       -1.05894395       -2.89861271
 C            2.55438672        2.46161820       -2.94582323
 C            2.61284875        1.10458452       -3.43766087
 C            0.76279724        3.77239981       -2.19810140
 C           -0.49265235        3.37827337       -1.59051462
 C            1.25915578        3.01112772       -3.32251992
 C           -2.23690856        1.79330161       -1.33590436
 C           -1.22831381        2.33133380       -2.12283320
 C           -4.01398476        0.12677736       -1.14115342
 C           -3.99814135       -1.23808175       -1.64566016
 C           -3.10459841        0.90361978       -1.94974811
 C           -2.01554773       -2.31442273       -2.61841922
 C           -0.68248956       -2.03122954       -3.11383376
 C           -2.97632491       -1.31503707       -2.67453882
 C           -2.56135089        0.04200123       -2.98187984
 C            0.96657409       -0.50951030       -3.84798353
 C            1.37480834        0.84662717       -4.15481242
 C            0.45812584        1.91375122       -3.82536971
 C           -0.73466266        1.56992070       -3.19408138
 C           -0.38254882       -0.78046045       -3.64204962
 C           -1.25942951        0.29130651       -3.41211594
