   70
C70 / DATE: 7/ 1/2024 / Origin: Program Fullerene / C70 from database
 C            1.10358998        0.09290211        4.62384159
 C            2.31823089       -0.29229568        3.94229149
 C            2.23153238       -1.71951252        3.68246944
 C            0.28116626       -1.10210433        4.75268698
 C            0.84128291       -2.09160425        3.85616735
 C           -1.09232915       -0.70007376        4.56496804
 C            0.26661704        1.11157174        4.02483662
 C           -1.09322935        0.73785157        4.34162488
 C            0.54082736        1.57031640        2.73613381
 C            2.63705681        0.34247030        2.68056471
 C            1.74360571        1.23831171        2.09790821
 C            2.84769935       -1.96546875        2.39476545
 C            3.23596053       -0.67538465        1.84069214
 C            2.24232702       -2.88101250        1.54861941
 C            0.11792820       -2.52088957        2.73833680
 C            0.81723962       -3.14977578        1.70905991
 C           -1.83809417       -1.28244946        3.46915321
 C           -1.16424164       -2.00798706        2.48363981
 C           -2.11873594        1.00755178        3.35599604
 C           -2.77261099       -0.25412012        3.06068531
 C           -0.49093744        2.14406259        1.98607469
 C           -1.82928166        1.84826246        2.28838269
 C           -0.18557387        2.74388949        0.76294039
 C            1.88211155        1.51273342        0.73920944
 C            1.02727981        2.43611203        0.14394575
 C            3.19197149       -0.50462153        0.46073011
 C            2.70179372        0.69917194       -0.05586623
 C            2.50358650       -2.76834936        0.12876987
 C            3.16559882       -1.64098850       -0.34741729
 C            0.23003603       -3.21421366        0.38223013
 C            1.31514575       -3.21337566       -0.57772362
 C           -1.68955514       -2.03397738        1.18297392
 C           -0.90640009       -2.47036187        0.11640401
 C           -3.38864142       -0.38162277        1.82810559
 C           -2.89989082       -1.40305596        0.91573715
 C           -2.77782842        1.93085141        1.27352004
 C           -3.58548460        0.81726264        1.03106674
 C           -1.21918983        3.31633017        0.02290208
 C           -2.57344335        2.85224114        0.25594035
 C           -1.06170467        3.53934228       -1.40599024
 C            1.26572553        2.83214473       -1.16650807
 C            0.16118849        3.27530285       -1.99846951
 C            2.78824179        0.92544010       -1.43212591
 C            2.14774807        2.02887854       -1.99318934
 C            3.19473902       -1.46724079       -1.72323373
 C            3.20165082       -0.11824597       -2.25517411
 C            1.10096523       -2.70653666       -1.85268897
 C            2.22343770       -2.20497214       -2.50863894
 C           -1.09680853       -1.93705534       -1.16357760
 C           -0.16388124       -2.19715663       -2.17664512
 C           -3.17442608       -0.94595669       -0.43689776
 C           -3.79284076        0.36620691       -0.33370014
 C           -2.24190593       -1.17855501       -1.44393742
 C           -3.18980768        2.61836396       -1.03754030
 C           -2.26114680        3.06131789       -2.06258529
 C           -3.62168953        1.27245218       -1.36771349
 C           -2.30015078       -0.40316360       -2.60477733
 C           -2.13944417        2.00047191       -3.04420468
 C           -2.89360685        0.85712385       -2.55413581
 C            0.20751465        2.50362823       -3.23415473
 C            1.54373414        1.92987507       -3.31747743
 C           -0.90765232        1.76266253       -3.64562244
 C            2.69804874       -0.20403205       -3.61696593
 C            2.07627898       -1.51216551       -3.77062580
 C            1.75678510        0.79452955       -4.08617304
 C           -0.38732003       -1.67465911       -3.44973091
 C           -1.38288066       -0.63607520       -3.61987587
 C           -0.71958932        0.51052611       -4.22374379
 C            0.74279137       -1.31418284       -4.28879766
 C            0.60888589        0.09308306       -4.62746567
