   70
C70 / DATE: 7/ 1/2024 / Origin: Program Fullerene / C70 from database
 C            1.39896164        0.00449188        4.71608281
 C            0.58339358       -1.16284996        4.43003761
 C            1.26316977       -1.95332533        3.43526351
 C            2.55289655       -0.03643407        3.83596893
 C            2.50921416       -1.27577064        3.09919960
 C            2.57792431        1.19130200        3.07968283
 C            0.62015916        1.18172345        4.36936859
 C            1.34907141        1.91822236        3.36910289
 C           -0.74531378       -0.70394038        4.12300444
 C           -0.71431200        0.74910024        4.04286653
 C           -1.48939068       -1.37390384        3.16273077
 C            0.52708438       -2.53383035        2.40397357
 C           -0.82909983       -2.19594222        2.22327630
 C            1.25775576       -3.01770565        1.32645746
 C            2.91901214       -1.28304290        1.77076698
 C            2.52301867       -2.37681702        1.00749726
 C            3.01625287        1.16123713        1.76069433
 C            3.24214071       -0.07426550        1.12875611
 C            2.69693606        2.27176160        0.98543251
 C            0.66035050        2.48939346        2.30268857
 C            1.44907596        2.96252934        1.26408962
 C           -1.39141825        1.35244321        2.98508329
 C           -0.66692204        2.10019094        2.03408944
 C           -2.64793947       -0.71797749        2.77759626
 C           -2.56953580        0.72301037        2.59836750
 C           -3.44469387       -1.26306506        1.71075029
 C           -1.48867886       -2.57075842        1.03282005
 C           -2.83075658       -2.23729654        0.84144557
 C            0.59321127       -3.32962438        0.08256396
 C           -0.76779818       -3.10198557       -0.04411221
 C            2.67116221       -2.35796788       -0.43504948
 C            1.47816601       -2.95159220       -1.01100513
 C            3.57295525       -0.09339109       -0.22850310
 C            3.23698254       -1.25265717       -1.03974755
 C            2.88739180        2.24420119       -0.45175146
 C            3.35913282        1.09126769       -1.04564738
 C            0.84443990        3.31367037        0.00268134
 C            1.77471715        2.95253040       -1.05752201
 C           -1.22293365        2.34634353        0.76103871
 C           -0.51013205        3.09053279       -0.19133923
 C           -3.16289342        1.02998446        1.31897477
 C           -3.88409124       -0.15089523        0.88379701
 C           -2.41942542        1.72612809        0.38364054
 C           -3.30915750       -1.94707835       -0.49757699
 C           -3.75673993       -0.56431124       -0.50087456
 C           -1.29670275       -3.05053072       -1.33338125
 C           -2.57457609       -2.40394494       -1.57682248
 C            0.92324161       -2.42971068       -2.17806853
 C           -0.41287714       -2.72259356       -2.44368816
 C            2.69290917       -0.77969887       -2.29938724
 C            2.79646279        0.67022406       -2.31504376
 C            1.56228496       -1.37973364       -2.85357889
 C            1.25395809        2.54287690       -2.28213981
 C            1.78021762        1.40579267       -2.92276315
 C           -0.98161961        3.16962349       -1.50161020
 C           -0.02996011        2.99332846       -2.58816262
 C           -2.71379376        1.55253503       -0.96574454
 C           -3.19371251        0.31770450       -1.41865293
 C           -2.18848710        2.45783839       -1.87044940
 C           -2.40920947       -1.53858795       -2.73368672
 C           -1.16632513       -1.91799916       -3.38667479
 C           -2.75071169       -0.18980321       -2.64223890
 C            0.88952451       -0.67976573       -3.85567761
 C            1.05859843        0.76413038       -3.92991011
 C           -0.50012836       -0.98045021       -4.15718841
 C           -0.74710981        2.45742034       -3.72536242
 C           -2.07290732        2.07493447       -3.26499700
 C           -2.28486556        0.68575565       -3.61798654
 C           -0.17661332        1.33331298       -4.42782258
 C           -1.17094147        0.27370531       -4.45562279
