   70
C70 / DATE: 7/ 1/2024 / Origin: Program Fullerene / C70 from database
 C            1.65187409        0.09387021        4.59425795
 C            0.85198393       -1.11571601        4.59333986
 C            1.46988419       -2.05402859        3.67733050
 C            2.65098464       -0.03264855        3.54416773
 C            2.54542517       -1.35679446        2.98510527
 C            2.50155140        1.09002069        2.65115453
 C            0.77838639        1.19583474        4.23662719
 C            1.39821074        1.89656692        3.13902830
 C           -0.52850014       -0.74149639        4.36635116
 C           -0.55662747        0.67550466        4.03266247
 C           -1.32817518       -1.61184462        3.64475794
 C            0.66424959       -2.91421480        2.93635864
 C           -0.72951297       -2.78082060        3.00797350
 C            1.23627763       -3.50029459        1.81177430
 C            2.66416639       -1.52967794        1.60935948
 C            2.28325083       -2.76917924        1.11305294
 C            2.59446867        0.89076102        1.27337774
 C            2.65152765       -0.41223863        0.75284351
 C            2.12481757        1.91700894        0.45303708
 C            0.58918535        2.47567254        2.18061311
 C            1.20483633        2.82285992        0.99470039
 C           -1.27474190        1.10295420        2.91469184
 C           -0.77490718        2.15871906        2.13261135
 C           -2.30760885       -1.06637931        2.72289980
 C           -2.29827592        0.29230292        2.41729086
 C           -1.56818157       -3.12235676        1.86227949
 C           -2.49156167       -2.02465154        1.64438430
 C            0.38743332       -4.12530524        0.81677969
 C           -1.01422919       -3.76361236        0.76914711
 C            2.08033586       -2.94447072       -0.30676210
 C            0.96389647       -3.85382606       -0.48585757
 C            2.51391739       -0.59469415       -0.63278116
 C            2.15674842       -1.84617946       -1.14709837
 C            2.24226114        1.78832436       -0.93060357
 C            2.45552753        0.52129743       -1.47967905
 C            1.84631582        2.84904063       -1.74579112
 C            0.50211925        3.67009435        0.16308614
 C            0.95647152        3.84808696       -1.19550363
 C           -1.53370504        2.64941044        1.05787619
 C           -0.94212812        3.53740051        0.15502028
 C           -3.00599211        0.70175853        1.29590831
 C           -2.67236075        1.95999006        0.65810087
 C           -2.73047305       -1.54426427        0.35816710
 C           -3.27561421       -0.27213152        0.24823817
 C           -1.30520352       -3.26818082       -0.56772177
 C           -0.10800533       -3.44130015       -1.37085381
 C           -2.06822616       -2.10913913       -0.74033707
 C            1.44219527       -1.90021922       -2.33829304
 C            0.16997572       -2.47566714       -2.32291018
 C            2.27562990        0.31834349       -2.85229833
 C            1.72127539       -0.94531454       -3.30204848
 C            1.40571848        2.59371538       -3.10296838
 C            1.70667272        1.37050235       -3.68162586
 C           -0.21878414        3.91599098       -2.04484952
 C           -1.36923199        3.54239994       -1.23809598
 C            0.06733282        3.16234604       -3.24735143
 C           -2.97149447        1.82341640       -0.76031960
 C           -3.24014658        0.41759610       -1.02090120
 C           -2.24192620        2.55510706       -1.69321178
 C           -1.92739771       -1.38054203       -1.93445787
 C           -0.89306864       -1.73161767       -2.81591904
 C           -2.64100414       -0.18554738       -2.11524559
 C            0.70254915       -0.65808780       -4.29653372
 C            0.75535085        0.76026427       -4.59548654
 C           -0.67063764       -1.00032242       -3.97554153
 C           -0.95063296        2.40050524       -3.80361826
 C           -2.09995232        2.03755467       -2.98419251
 C           -2.37703339        0.62675458       -3.21197867
 C           -0.60841900        1.25368693       -4.62340601
 C           -1.48904810        0.15710162       -4.25011236
