   70
C70 / DATE: 7/ 1/2024 / Origin: Program Fullerene / C70 from database
 C            1.38677629       -0.07060739        4.28959315
 C            2.58608675       -0.23232055        3.48238867
 C            2.43913537       -1.46133406        2.72160426
 C            0.54540541       -1.23847626        4.08474793
 C            1.20829905       -2.11204280        3.14641045
 C           -0.78475669       -0.78269357        3.76102012
 C            0.56347567        1.11546966        4.10978098
 C           -0.76475078        0.67271212        3.72810622
 C            1.11130168        2.22415674        3.48409785
 C            3.13576334        0.88235926        2.86722762
 C            2.50596821        2.17588525        3.07752418
 C            3.50860600        0.80007732        1.46442256
 C            2.77920857       -1.49759938        1.36980074
 C            3.11510650       -0.30801874        0.71186469
 C            2.32726368       -2.58455051        0.62916228
 C            0.45344218       -2.77594545        2.18619434
 C            1.15157579       -3.29820471        1.10179906
 C           -1.51256375       -1.45268288        2.78409166
 C           -0.91691783       -2.49408281        2.05308882
 C           -2.60838373       -0.78095626        2.25020191
 C           -1.46153895        1.32525166        2.71255608
 C           -2.56649274        0.67074077        2.18521302
 C            0.36178225        2.88106698        2.42389523
 C           -0.82279579        2.31399381        1.95457230
 C            2.63871517        2.93902648        1.85217230
 C            3.38969879        2.13646392        0.90382305
 C            1.31812867        3.40829432        1.46819242
 C            3.08800998        2.27223315       -0.44029372
 C            2.87075285       -0.16516474       -0.66205087
 C            2.99471138        1.08182837       -1.26476341
 C            2.20685602       -2.46388413       -0.80755937
 C            2.27342782       -1.20028407       -1.37914678
 C            0.43791405       -3.80545531       -0.05479215
 C            1.17996420       -3.39757110       -1.23850815
 C           -1.64501597       -3.11038534        1.03252915
 C           -0.94816521       -3.76953776       -0.06061200
 C           -3.25451440       -1.26913250        1.04641104
 C           -2.80988792       -2.44415984        0.47179397
 C           -3.09403685        1.07234747        0.89998590
 C           -3.53872063       -0.12376541        0.19965913
 C           -1.22723301        2.56638828        0.63438053
 C           -2.45769028        2.06924484        0.17613819
 C            0.98060004        3.40514422        0.12305714
 C            1.97203300        3.12120657       -0.81759594
 C           -0.35510538        3.24224928       -0.23700585
 C            2.13719622        1.40317674       -2.39426131
 C            1.58640415        2.72970515       -2.16180102
 C            1.53251680       -0.91938216       -2.53271345
 C            1.32198639        0.40724684       -2.92553136
 C            0.50492333       -3.14580185       -2.42307512
 C            0.84006086       -1.94632657       -3.16882758
 C           -1.65576800       -3.46647722       -1.29487763
 C           -2.72862203       -2.53628168       -0.97443803
 C           -0.94142201       -3.30111789       -2.47510849
 C           -3.35441192       -0.20086073       -1.18017800
 C           -2.92279249       -1.40026115       -1.76330261
 C           -2.80892937        2.19099155       -1.16375818
 C           -3.23759548        0.99949033       -1.88323050
 C           -0.68207530        3.39300032       -1.58051457
 C            0.29456218        2.99637952       -2.58025866
 C           -1.98327205        2.97589570       -2.04887146
 C            0.15074841        0.76547811       -3.60846612
 C           -2.61946278        1.02404445       -3.19907908
 C           -0.36132530        2.05329604       -3.46535859
 C           -1.79114233        2.21499064       -3.27268133
 C           -0.30847991       -1.61543596       -3.98254527
 C           -1.44270143       -2.36827655       -3.46800825
 C           -2.46070723       -1.40770283       -3.07857925
 C           -0.70932401       -0.22682376       -4.07353748
 C           -2.12180551       -0.15623194       -3.72617536
