   70
C70 / DATE: 7/ 1/2024 / Origin: Program Fullerene / C70 from database
 C            1.03682115        0.03346287        4.86333727
 C            2.34295147       -0.28443578        4.34968949
 C            2.32764332       -1.70766651        4.05461270
 C            0.24619026       -1.19091849        4.79420472
 C            0.93667305       -2.05590444        3.86775271
 C           -1.10232049       -0.80065329        4.47994974
 C            0.26306401        1.04761257        4.18384063
 C           -1.10257167        0.65127551        4.41410794
 C            0.62344394        1.46343457        2.89309674
 C            2.77629175        0.36998716        3.13340178
 C            1.83782567        1.03172716        2.33436097
 C            3.22179876       -1.90304677        2.94738010
 C            3.66672440       -0.58272714        2.51517831
 C            2.70195993       -2.54409805        1.76185400
 C            0.44153338       -2.21472534        2.56348808
 C            1.31920944       -2.58265259        1.53927664
 C           -1.67937436       -1.25957587        3.23201624
 C           -0.85426629       -1.78341088        2.23975624
 C           -2.05877157        1.01028607        3.40883888
 C           -2.60735784       -0.22071192        2.86539039
 C           -0.36587494        2.01970618        2.06390623
 C           -1.70772005        1.98108299        2.48578907
 C           -0.07296267        2.27333304        0.71389887
 C            2.02214072        1.07695193        0.94376448
 C            1.10006764        1.75604699        0.14640218
 C            3.72450749       -0.63054181        1.07298023
 C            3.53907816       -2.02310104        0.71228882
 C            3.03473669        0.32203861        0.32836755
 C            3.15187829       -2.27956246       -0.58031812
 C            0.86698741       -2.62355559        0.21567085
 C            1.81898512       -2.81965669       -0.78143477
 C           -1.21670538       -1.59633220        0.89782258
 C           -0.36948048       -2.05178195       -0.11985417
 C           -3.05870241       -0.14731149        1.55967557
 C           -2.39967961       -0.90552432        0.57575500
 C           -2.69801025        2.23972658        1.55652702
 C           -3.53091130        1.10620013        1.19794110
 C           -1.03815351        2.87946248       -0.10250815
 C           -2.35837134        2.90699674        0.32558452
 C           -0.77750422        3.08190919       -1.45617481
 C            1.30834507        1.82656315       -1.23458460
 C            0.47120668        2.61192000       -2.01650251
 C            2.97033378        0.10271998       -1.04820469
 C            3.23751295       -1.18458907       -1.51565984
 C            2.21335293        0.95756306       -1.84665750
 C            1.48033927       -2.52672374       -2.15661477
 C            2.53105004       -1.65839085       -2.67825387
 C           -0.73235469       -1.87976480       -1.46923937
 C            0.16539498       -2.24099550       -2.49192203
 C           -2.73133711       -0.69864095       -0.77173878
 C           -1.95794816       -1.27142882       -1.78390862
 C           -3.98952271        1.30838018       -0.14616687
 C           -3.41127809        2.55910227       -0.61179702
 C           -3.64873460        0.30199651       -1.11737253
 C           -1.82917074        2.83456774       -2.43957637
 C           -3.06370874        2.37196989       -2.00500701
 C           -3.47701850        1.02054599       -2.36265020
 C            0.22414046        2.24389653       -3.40059808
 C           -1.21919126        2.21235388       -3.60070968
 C            2.08114643        0.65885377       -3.20840591
 C            2.18247947       -0.72870460       -3.63669847
 C            1.03044409        1.28422348       -3.99538883
 C           -0.04499270       -1.79777191       -3.79542012
 C            1.00418111       -1.01543759       -4.42471396
 C            0.42753992        0.25195875       -4.82367968
 C           -2.26025783       -0.93606649       -3.10707784
 C           -2.82541645        0.36923426       -3.39012805
 C           -1.82666178        1.08955264       -4.15965173
 C           -1.30069428       -1.19186810       -4.15312768
 C           -1.01095321        0.08163418       -4.80616105
