   70
C70 / DATE: 7/ 1/2024 / Origin: Program Fullerene / C70 from database
 C            1.37318631        0.16593011        5.16498155
 C            0.58347466       -1.04694413        5.22569846
 C            1.50237270       -2.14147778        4.99952483
 C            2.58911366       -0.14930698        4.42869290
 C            2.68678236       -1.58611906        4.35161648
 C            2.55597407        0.60841356        3.19400761
 C            0.62858572        1.12809633        4.37717693
 C            1.50738264        1.59917829        3.33175747
 C           -0.55386722       -0.88320706        4.32649032
 C           -0.61906936        0.51994470        3.95853623
 C           -0.81595468       -1.85122082        3.35559738
 C            1.05113562       -3.24110162        4.17908543
 C           -0.20496882       -3.10656213        3.46108448
 C            2.78984287       -2.20628118        3.04357758
 C            2.07241771       -3.45683641        3.16832924
 C            2.68873107       -0.03298497        1.95659881
 C            2.62442589       -1.43349490        1.88435011
 C            2.37582868        0.71842065        0.82021987
 C            0.91977033        2.02989044        2.15954729
 C            1.66969280        1.90768042        1.00311857
 C           -1.09319124        0.85789988        2.69675116
 C           -0.45977586        1.89632649        2.01848929
 C           -1.44026777       -1.46674152        2.15522812
 C           -1.74161318       -0.11013264        1.93667821
 C           -1.52722368       -2.37198262        1.08611620
 C           -0.03670476       -3.90747093        2.27279560
 C            1.39535471       -3.97111023        2.00429603
 C           -0.66831887       -3.46304796        1.05448641
 C            2.21222500       -2.05103140        0.69040081
 C            1.59892342       -3.30332290        0.73595319
 C            0.35206053       -3.46293680        0.02866003
 C            2.29816296        0.08574173       -0.42077791
 C            1.99776577       -1.27535403       -0.45465097
 C            2.02769156        0.86576539       -1.55024483
 C            1.18023649        2.55868774       -0.11382452
 C            1.70402697        2.20837270       -1.34891389
 C           -0.99644946        2.31284323        0.80625883
 C           -0.14270642        2.99009011       -0.05526092
 C           -2.30180311        0.28627405        0.71718060
 C           -2.04601664        1.58342211        0.24421435
 C           -1.94422412       -1.89296086       -0.15084848
 C           -2.66051845       -0.70523737       -0.18947724
 C            0.12221152       -2.64568391       -1.05849500
 C            1.11698185       -1.75296228       -1.43591096
 C           -1.18513339       -2.24349572       -1.27195931
 C            1.56087032        0.22809884       -2.70023530
 C            0.85784593       -0.96365339       -2.55323908
 C            1.38943099        0.97214307       -3.86554742
 C            1.36427717        3.00441448       -2.43712309
 C            1.36304286        2.41686872       -3.76191424
 C           -0.69286498        3.59170140       -1.17294298
 C            0.17120604        3.82311792       -2.31672178
 C           -2.53332503        1.97162007       -1.01253745
 C           -1.95626726        3.07046146       -1.66235927
 C           -3.21734354       -0.33762894       -1.40688482
 C           -3.30384747        1.06983805       -1.73951475
 C           -1.46248059       -1.61655163       -2.47655153
 C           -0.37662228       -1.11081922       -3.19918587
 C           -2.70082034       -0.99744854       -2.58708834
 C            0.34801007        0.58338263       -4.80248961
 C           -0.59666738       -0.44125070       -4.39984833
 C            0.18423916        2.90005055       -4.46580088
 C           -0.62074017        3.65075759       -3.51924957
 C           -1.92566234        3.14302853       -3.11938362
 C           -0.41247076        1.77424737       -5.15527629
 C           -3.35153469        1.15828225       -3.19335503
 C           -2.97749927       -0.14464112       -3.72339060
 C           -1.92908000        0.05332652       -4.70289833
 C           -2.54847725        2.15600187       -3.87315676
 C           -1.81977005        1.48068252       -4.94044137
