   70
C70 / DATE: 7/ 1/2024 / Origin: Program Fullerene / C70 from database
 C            1.24381399       -0.03999460        4.45380187
 C            2.58483660       -0.28157184        3.95682656
 C            2.62917004       -1.63326242        3.42921515
 C            0.44830252       -1.22661091        4.19051663
 C            1.29571979       -2.20441313        3.53523680
 C           -0.76699543       -0.81265025        3.51738179
 C            0.51164217        1.10852144        3.95049119
 C           -0.73139585        0.63210180        3.36857021
 C            1.20314638        2.11570872        3.29700145
 C            3.12182968        0.60845382        2.94370408
 C            2.54093645        1.85393530        2.76660738
 C            3.26192389       -1.58506479        2.12130610
 C            3.42216492       -0.18440434        1.76295280
 C            2.82766899       -2.47665173        1.15487465
 C            0.78593620       -2.90116263        2.44453654
 C            1.67509363       -3.30785136        1.45172516
 C           -1.22905317       -1.57396931        2.45367648
 C           -0.56618398       -2.75654891        2.11822038
 C           -2.04677633       -0.96470856        1.50597307
 C           -1.20116565        1.19787216        2.18206737
 C           -1.97364896        0.42184800        1.32439847
 C            0.50233146        2.90273112        2.29834099
 C           -0.66655021        2.40362232        1.71723569
 C            2.58568885        2.45198503        1.44683492
 C            1.53069856        3.44357290        1.43449577
 C            3.00496369        0.27154252        0.50809076
 C            2.75011928        1.63436285        0.32552746
 C            2.65306638       -2.00564395       -0.20637082
 C            2.56379341       -0.64167237       -0.45124462
 C            1.15219451       -3.76833606        0.18120481
 C            1.70791869       -2.89905963       -0.85077348
 C           -1.09401399       -3.54215332        1.09755289
 C           -0.18754957       -4.11069328        0.10891499
 C           -2.70793760       -1.76286497        0.57238577
 C           -2.27819805       -3.07708788        0.39181033
 C           -3.48190680       -1.15879658       -0.41858981
 C           -2.53390019        1.00918579        0.19733470
 C           -3.47525328        0.28973483       -0.52797476
 C           -1.05546210        2.90292826        0.46491109
 C           -1.96289413        2.17756312       -0.32720372
 C            1.14147914        3.94246442        0.21179146
 C           -0.26946676        3.90304624       -0.11138056
 C            2.27207964        2.09434804       -0.90666666
 C            1.79759833        3.40775645       -0.96138615
 C            1.81541760       -0.18967491       -1.53373994
 C            1.85554335        1.16090998       -1.86685755
 C            0.87103733       -2.40521599       -1.84988843
 C            0.95026201       -1.05873904       -2.21548985
 C           -0.83796961       -4.02430090       -1.18273918
 C           -2.20828096       -3.61080057       -0.95420303
 C           -0.27481820       -3.12711547       -2.17420780
 C           -3.46475350       -1.70565549       -1.77170277
 C           -2.59180954       -2.74573670       -2.04898220
 C           -1.38568075       -2.44990230       -2.81794075
 C           -3.69511393        0.62131666       -1.91506256
 C           -3.49109863       -0.58859134       -2.69157060
 C           -2.17804338        2.52803303       -1.67609002
 C           -2.87353264        1.65285099       -2.50437850
 C           -0.33621585        4.13596329       -1.53671625
 C            0.98738469        3.84339644       -2.07872047
 C           -1.29485852        3.39237688       -2.31325254
 C            1.26119563        1.57649944       -3.05667034
 C            0.81699584        2.94753920       -3.19790754
 C           -0.60135091        2.90628370       -3.49191898
 C            0.04762101       -0.54991388       -3.15528416
 C           -1.19877856       -1.16330159       -3.31607390
 C           -2.32472411       -0.36840962       -3.52369747
 C           -2.16695766        1.06576960       -3.63667187
 C            0.24646931        0.73164134       -3.66421645
 C           -0.91370517        1.56666492       -3.94994204
