   70
C70 / DATE: 7/ 1/2024 / Origin: Program Fullerene / C70 from database
 C            1.39544273        0.07660899        4.82864946
 C            0.60257557       -1.12787238        4.64622522
 C            1.41966688       -2.09310935        3.95077352
 C            2.61135344       -0.07676212        4.05136008
 C            2.66793718       -1.44111894        3.58137278
 C            2.64075851        0.98386502        3.06674118
 C            0.64831913        1.18850380        4.26370391
 C            1.44638449        1.79215320        3.22012776
 C           -0.65788397       -0.73969547        4.04706767
 C           -0.66169623        0.70364972        3.90622422
 C           -1.20232087       -1.48807458        3.00296318
 C            0.88277242       -2.71294337        2.75567345
 C           -0.43921647       -2.48955436        2.37388245
 C            2.87866602       -1.67167065        2.16395573
 C            1.90279344       -2.64744329        1.72881393
 C            3.05771130        0.71497471        1.77175398
 C            3.15725414       -0.60841386        1.31298796
 C            2.80668897        1.69789739        0.82807247
 C            0.81214864        2.23789690        2.05946119
 C            1.58209605        2.37767149        0.90495742
 C           -1.27561827        1.21976277        2.77671111
 C           -0.57372189        2.09095754        1.92798338
 C           -2.25741462       -0.90803235        2.29367742
 C           -2.32957605        0.48911270        2.24491608
 C           -2.89021699       -1.67183986        1.31967750
 C           -0.80965719       -2.91060395        1.09422285
 C           -2.13369887       -2.74093813        0.70378278
 C            1.47970254       -2.62200463        0.40602665
 C            0.18930002       -3.06371803        0.12403216
 C            3.05338729       -0.83913831       -0.06138413
 C            2.12613130       -1.78730652       -0.51575438
 C            3.41115596        1.53056741       -0.40443793
 C            3.46846285        0.17672627       -0.91732898
 C            3.03738485        2.40936660       -1.48590890
 C            0.97861823        2.85980849       -0.25949107
 C            1.78050555        3.11574750       -1.37084963
 C           -1.19779913        2.51134120        0.74653564
 C           -0.41856675        2.79949179       -0.38905914
 C           -3.12980426        1.12258161        1.30782915
 C           -2.56491457        2.26303713        0.61289656
 C           -3.68403551       -1.02825767        0.28711296
 C           -3.88603071        0.34010523        0.34720006
 C           -2.49295004       -2.79499524       -0.70225458
 C           -3.35444341       -1.65465069       -0.98656936
 C           -0.14913403       -3.27486488       -1.20642997
 C           -1.53631812       -3.17665973       -1.62741699
 C            1.64239832       -1.73043470       -1.82978172
 C            0.67410767       -2.64921229       -2.22541962
 C            2.97489806        0.21176877       -2.28064023
 C            2.97815319        1.60397655       -2.69260553
 C            1.90867528       -0.61176305       -2.62880106
 C            1.18952135        3.11443836       -2.68782263
 C            1.86990589        2.09628218       -3.47623118
 C           -1.01973080        2.91281480       -1.66002341
 C           -0.22877170        2.87510869       -2.79765509
 C           -3.18286210        2.32359770       -0.69006003
 C           -3.93940200        1.09673523       -0.88722445
 C           -2.33315512        2.50728630       -1.83840040
 C           -3.13620990       -0.87180292       -2.12503573
 C           -3.47217586        0.47760090       -2.11500810
 C           -2.60038345        1.43142422       -2.78211117
 C           -1.55723372       -2.56893337       -2.94288290
 C           -0.18184972       -2.32756431       -3.34510576
 C           -2.30262338       -1.33771144       -3.13616833
 C            0.99057487       -0.19789435       -3.61117639
 C            0.86538422        1.15237110       -3.91692502
 C           -0.42953377        1.78176015       -3.73598579
 C           -1.55826333        0.97231851       -3.59052043
 C           -0.10757079       -0.99526239       -3.90116820
 C           -1.43605276       -0.39906374       -3.83373362
