   70
C70 / DATE: 7/ 1/2024 / Origin: Program Fullerene / C70 from database
 C            1.59416710        0.06712498        4.75106925
 C            0.77850030       -1.11228806        4.54755990
 C            1.45092902       -1.95930205        3.58016850
 C            2.68742725        0.01827253        3.79364772
 C            2.54422245       -1.18403528        3.01026727
 C            2.70464321        1.27563501        3.09304397
 C            0.77669251        1.22015078        4.41772952
 C            1.56004470        2.05070027        3.54476413
 C           -0.56670552       -0.66992580        4.24354570
 C           -0.49064741        0.74454693        3.91440479
 C           -1.33494956       -1.48306187        3.43679676
 C            0.67489019       -2.72957217        2.72019283
 C           -0.71566421       -2.65405476        2.82619580
 C            1.24146289       -3.10108318        1.50453711
 C            2.66449663       -1.11903684        1.62287196
 C            2.26050358       -2.24247899        0.91639889
 C            2.97543713        1.29205621        1.72615128
 C            2.71074261        0.13125708        0.97455876
 C            2.81088965        2.53106245        1.11955322
 C            0.91188827        2.78730072        2.57148400
 C            1.77463002        3.38756935        1.67561883
 C           -0.92145618        1.18888241        2.65835723
 C           -0.31577337        2.30589703        2.06940838
 C           -2.14070916       -0.86107277        2.40602169
 C           -1.75557221        0.37035989        1.89148898
 C           -1.54780639       -3.00463406        1.68933993
 C           -2.49827858       -1.91672992        1.49483709
 C            0.40397724       -3.59874371        0.42638009
 C           -0.98441939       -3.59939369        0.56311133
 C            1.99159712       -2.14210987       -0.49983336
 C            1.00092142       -3.14781658       -0.82509786
 C            2.29964392        0.24015803       -0.37360411
 C            1.89344831       -0.89113129       -1.08435332
 C            2.68622644        2.61380738       -0.31607885
 C            2.29043456        1.48026030       -1.01967695
 C            1.20883030        4.15270780        0.60237733
 C            2.01862102        3.87603904       -0.56735631
 C           -0.75179983        2.72599091        0.80266105
 C           -0.15754281        3.85794128        0.24340773
 C           -1.93944836        0.63128414        0.52751768
 C           -1.48671748        1.84111110       -0.00961433
 C           -2.85602049       -1.60346283        0.19795463
 C           -2.56339783       -0.32107221       -0.29977717
 C           -1.75663604       -3.61490056       -0.59459148
 C           -2.86303644       -2.67668355       -0.67685728
 C            0.17579881       -2.94692592       -1.91977174
 C           -1.08646043       -3.53287718       -1.87578271
 C            1.15910233       -0.74938296       -2.26286035
 C            0.39008338       -1.83023092       -2.73758643
 C            1.64159744        1.61950932       -2.25716366
 C            1.15837397        0.48694367       -2.92345253
 C            1.13278551        3.96246050       -1.69626556
 C           -0.22955778        4.07474303       -1.17882228
 C            1.10855201        2.86050391       -2.62748162
 C           -1.72649387        2.13447828       -1.36360847
 C           -1.04345853        3.18754807       -1.97507033
 C           -0.23821119        2.88709344       -3.14160699
 C           -2.72515940       -0.05442844       -1.66894994
 C           -2.23656668        1.14197712       -2.20798237
 C           -3.13379855       -2.44067097       -2.07052912
 C           -2.10009142       -3.13230474       -2.83022723
 C           -3.15466815       -1.07284515       -2.53129348
 C           -0.37893957       -1.69320231       -3.89222373
 C           -1.71385400       -2.25827207       -3.91306905
 C           -2.63119454       -1.13295389       -3.87951453
 C            0.28680089        0.70064076       -3.99332422
 C           -0.63051432        1.81927358       -3.90703322
 C           -1.88715222        1.20263878       -3.56404781
 C           -0.50402224       -0.39562547       -4.50892347
 C           -1.90163799        0.00438397       -4.36999146
