   70
C70 / DATE: 7/ 1/2024 / Origin: Program Fullerene / C70 from database
 C            1.06541861       -0.04234783        4.63575210
 C            2.30884936       -0.30929001        3.95251584
 C            2.25975844       -1.69299118        3.51541527
 C            0.25308352       -1.24883974        4.54054406
 C            0.87338183       -2.09035889        3.53885671
 C           -1.11254910       -0.83037380        4.33941756
 C            0.24088811        1.05229129        4.16966921
 C           -1.12164859        0.62374673        4.36893858
 C            0.55034411        1.70399964        2.97514608
 C            2.64461077        0.48377265        2.78657894
 C            1.72747271        1.38989895        2.27532111
 C            2.93891376       -1.75846237        2.24811767
 C            3.30989799       -0.40657177        1.85941482
 C            2.40675453       -2.56036232        1.25538548
 C            0.23469746       -2.31865747        2.31518863
 C            1.00791786       -2.72539099        1.21602100
 C           -1.78294731       -1.22577386        3.11796203
 C           -1.06261976       -1.83077410        2.09356007
 C           -2.10285352        1.05877236        3.40323558
 C           -2.66450946       -0.13115906        2.78077393
 C           -0.45352114        2.43758016        2.32865923
 C           -1.80466440        2.13357225        2.57192329
 C           -0.09751689        3.20133154        1.21760192
 C            1.86535417        1.78448027        0.94784871
 C            1.12135992        2.86303195        0.50471978
 C            3.30156628       -0.11400893        0.49292265
 C            2.50093838        0.94122720        0.02476859
 C            3.09523540       -2.50067350        0.05807963
 C            3.55863487       -1.18541195       -0.35696671
 C            2.54355948       -3.16837904       -1.09217265
 C            0.36990001       -2.95439396       -0.01276864
 C            1.11910269       -3.39352067       -1.10618199
 C           -1.53993111       -1.72218202        0.78882147
 C           -0.91820262       -2.45497661       -0.21788554
 C           -3.12228827       -0.00427568        1.47571367
 C           -2.61250847       -0.86133833        0.48745274
 C           -2.75194696        2.39726645        1.58839209
 C           -3.53084738        1.27150656        1.10366236
 C           -1.09816335        3.58013287        0.23484931
 C           -2.41836986        3.22516875        0.44558494
 C            0.88084923        3.02783253       -0.91138112
 C           -0.50686984        3.43183062       -1.08892796
 C            2.20361100        1.05249892       -1.34910432
 C            1.44133373        2.13773590       -1.81678815
 C            3.29881106       -1.05806993       -1.77100775
 C            2.87133432       -2.36296241       -2.25202409
 C            2.64735135        0.06891590       -2.25080140
 C            0.66253460       -3.11392299       -2.45843729
 C            1.74101074       -2.42566782       -3.15934568
 C           -1.49045339       -2.49768871       -1.48314061
 C           -0.65021131       -2.70977366       -2.64831330
 C           -3.02045710       -0.69371092       -0.84632161
 C           -2.48894345       -1.51053030       -1.83505216
 C           -3.87842078        1.53025621       -0.27132274
 C           -3.21427309        2.76097050       -0.67460909
 C           -3.56987460        0.51781700       -1.25471830
 C           -1.24493315        2.89760280       -2.14907976
 C           -2.56769165        2.51045198       -1.94941809
 C           -2.99383008        1.19443397       -2.40292525
 C            0.87130838        2.09559433       -3.08454325
 C           -0.55585019        2.33121415       -3.21639394
 C            2.06443217       -0.03238225       -3.51143423
 C            1.45243954       -1.29204382       -3.90592057
 C            1.21913280        1.03041082       -3.99454398
 C           -0.95628196       -1.66348638       -3.61375330
 C           -2.09409332       -0.91062616       -3.10349653
 C           -2.16283769        0.47714654       -3.25626547
 C           -1.11923409        1.16202938       -3.87439238
 C            0.07615853       -1.00273377       -4.26686351
 C           -0.01860381        0.42959206       -4.47251369
