   70
C70 / DATE: 7/ 1/2024 / Origin: Program Fullerene / C70 from database
 C            1.24463546       -0.14741477        4.43676145
 C            2.52154539       -0.33046195        3.77612254
 C            2.45660593       -1.58508617        3.04558186
 C            0.41184978       -1.29545277        4.10760242
 C            1.08470661       -2.04909552        3.07747601
 C           -0.91625973       -0.81011282        3.82781678
 C            0.46991625        1.05105638        4.16513352
 C           -0.90413909        0.63693463        3.95864551
 C            0.99916400        2.05266014        3.36351036
 C            2.99780198        0.68955175        2.85782967
 C            2.30592091        1.88577337        2.73710444
 C            3.06952624       -1.37212272        1.75335723
 C            3.46549124        0.02015879        1.65589647
 C            2.48958203       -1.94550502        0.63535649
 C            0.43311469       -2.27515473        1.86671849
 C            1.20197575       -2.49088525        0.72390323
 C           -1.63285297       -1.35141287        2.76652390
 C           -0.93269833       -1.98811388        1.72704082
 C           -2.83320668       -0.71591050        2.47790150
 C           -1.73628129        1.35834397        3.10865143
 C           -2.91138615        0.71431322        2.73988243
 C            0.13057857        2.73164961        2.41593581
 C           -1.16618795        2.27471409        2.21036972
 C            2.26204331        2.54333526        1.44609160
 C            0.93499937        3.11227534        1.26870733
 C            3.34768786        0.64698675        0.41329410
 C            2.89129103        1.97352828        0.34373264
 C            2.93598008       -1.50599282       -0.60188564
 C            3.31080572       -0.16348160       -0.73168883
 C            2.55073341       -2.24281013       -1.71395252
 C            0.57704925       -2.92182645       -0.44404561
 C            1.37568699       -3.08197418       -1.57903617
 C           -1.52833824       -2.14665808        0.46607391
 C           -0.81157977       -2.76618318       -0.56365829
 C           -3.49323445       -0.96445227        1.21646953
 C           -2.78753824       -1.58845903        0.19374670
 C           -3.74379558        1.30706477        1.71903137
 C           -4.27955003        0.22096208        0.91797402
 C           -1.76442595        2.50183220        0.96655813
 C           -3.12383870        2.24868659        0.81473111
 C            0.37156281        3.10679195       -0.00581024
 C           -0.96169180        2.70557697       -0.16479944
 C            2.58118900        2.52230403       -0.89572328
 C            1.23922979        3.04960742       -1.09863350
 C            3.34048476        0.42948322       -1.99010654
 C            2.97239530        1.82269556       -2.10129262
 C            2.50512632       -1.61739823       -3.02524617
 C            2.74125970       -0.25579437       -3.11983788
 C            0.77818750       -3.20400148       -2.88996767
 C            1.35752842       -2.16555282       -3.72705319
 C           -1.44120284       -2.94004693       -1.79464740
 C           -0.65651592       -3.10630808       -3.00325083
 C           -3.18913745       -1.37652091       -1.13135068
 C           -2.52326840       -2.04721656       -2.14375719
 C           -4.33064447        0.68694107       -0.44981936
 C           -3.64858374        1.97189538       -0.50613215
 C           -3.74759851       -0.14898985       -1.47663025
 C           -1.40789123        2.29191928       -1.42750906
 C           -2.72633241        1.92802816       -1.62256762
 C           -2.98986023        0.71327664       -2.36611028
 C            0.75567978        2.52764295       -2.36333789
 C            1.86857408        1.91169702       -3.04479339
 C            1.67768153        0.60164110       -3.62341872
 C           -0.48305469        1.91053597       -2.38617405
 C            0.28363417       -1.26326585       -4.10010184
 C           -0.95327800       -1.97146700       -3.86680152
 C           -2.05094256       -1.25435661       -3.26696573
 C           -1.96239923        0.12421562       -3.10231707
 C            0.39079252        0.08034504       -3.74482480
 C           -0.69430292        0.73506079       -3.12828508
