   70
C70 / DATE: 7/ 1/2024 / Origin: Program Fullerene / C70 from database
 C            1.48459945        0.13065331        4.82601837
 C            0.69169315       -1.07780533        4.73432176
 C            1.33835756       -1.97606604        3.79142645
 C            2.64723893       -0.04018412        3.97293230
 C            2.60652291       -1.37729650        3.41042052
 C            2.69667881        1.08837064        3.06216052
 C            0.68554489        1.21051675        4.27248636
 C            1.45629585        1.82566165        3.21798324
 C           -0.67541616       -0.67887675        4.45819084
 C           -0.62191496        0.68002661        3.94098073
 C           -1.47319432       -1.58691814        3.79052643
 C            0.53834999       -2.59898798        2.83328453
 C           -0.81923397       -2.70366575        3.12241243
 C            0.96253392       -2.64516701        1.49511610
 C            3.07070832       -1.55324698        2.11816023
 C            2.27629515       -2.32936234        1.18050340
 C            3.17106456        0.88714690        1.76724030
 C            3.57006462       -0.39905493        1.38956952
 C            2.77757680        1.78671664        0.77129012
 C            0.81123648        2.22702710        2.06219329
 C            1.60917553        2.53239266        0.97058014
 C           -1.16573879        0.95522109        2.68149513
 C           -0.52328185        1.86013775        1.83302936
 C           -2.43621719       -1.07751994        2.83892830
 C           -2.16068141        0.11768797        2.16777322
 C           -1.72594700       -3.16610354        2.09616839
 C           -2.84046496       -2.23061429        2.07311445
 C            0.03467854       -2.78674526        0.45578168
 C           -1.23221897       -3.26852169        0.73954458
 C            0.28408201       -2.21194767       -0.79934715
 C            2.58270730       -1.84712184       -0.15517589
 C            3.54855461       -0.76808125       -0.01400145
 C            1.56069396       -1.73034914       -1.09893813
 C            3.26554033        1.59384052       -0.51953259
 C            3.54937249        0.23887695       -0.95928112
 C            2.66383866        2.29655255       -1.64160368
 C            1.00780498        3.19894103       -0.08438173
 C            1.60024018        3.15554996       -1.40657291
 C           -1.10124199        2.17268314        0.60130463
 C           -0.43021741        3.06837685       -0.22684897
 C           -2.62145243        0.29776267        0.84987641
 C           -2.07204203        1.32456274        0.05819162
 C           -3.18523219       -2.02125349        0.69590532
 C           -2.32682242       -2.87083331       -0.11019386
 C           -3.37653254       -0.72362179        0.24616459
 C           -0.74849735       -2.08507890       -1.74582695
 C           -2.06892352       -2.42417358       -1.39575333
 C           -0.51598576       -1.35647646       -2.92829960
 C            1.73984063       -0.87863854       -2.18945910
 C            2.79504388        0.03650467       -2.17741566
 C            2.59417347        1.35290754       -2.74858112
 C            0.71595258       -0.71328911       -3.12296980
 C            1.60736805        1.49536387       -3.70808491
 C            0.84023682        0.31791666       -4.06225110
 C            0.51802324        3.23569105       -2.37129420
 C           -0.73910377        3.11870773       -1.63942294
 C            0.65123256        2.58693335       -3.59171491
 C           -2.47145155        1.47827782       -1.28114570
 C           -1.75434768        2.31951584       -2.14824672
 C           -3.66356721       -0.63207638       -1.10505313
 C           -3.09749937       -1.67385464       -1.94565661
 C           -3.42785590        0.60995375       -1.79648809
 C           -1.58605737       -1.08958533       -3.79290677
 C           -2.92582832       -1.12539234       -3.26152077
 C           -3.39039691        0.25156935       -3.20133060
 C           -0.32126568        0.81132836       -4.76642018
 C           -0.55479046        2.16277289       -4.27904110
 C           -1.79690168        2.12134022       -3.53150583
 C           -1.56079785        0.08779303       -4.63500889
 C           -2.54220025        1.01262877       -4.08379979
