   70
C70 / DATE: 7/ 1/2024 / Origin: Program Fullerene / C70 from database
 C            1.28135223       -0.06846614        4.41294276
 C            2.53541000       -0.46352177        3.82145170
 C            2.50326596       -1.90355775        3.61676518
 C            0.43549217       -1.25148386        4.50697474
 C            1.16778659       -2.37336394        3.95281981
 C           -0.85508623       -0.90205909        3.93948844
 C            0.50071673        0.96614814        3.76189485
 C           -0.88270062        0.54601604        3.86163177
 C            0.94195303        1.54633573        2.56726220
 C            2.93195403        0.14870903        2.57159567
 C            2.17787749        1.18152677        2.01069644
 C            3.04792590       -2.17729536        2.29390782
 C            3.40141054       -0.90436360        1.69401308
 C            2.46126383       -3.15470992        1.50495085
 C            0.51613294       -3.23749649        3.08265246
 C            1.26594239       -3.82581704        1.98625132
 C           -1.36669855       -1.64862425        2.87641450
 C           -0.80802000       -2.88896791        2.57858879
 C           -2.21455718       -1.02925003        1.95053237
 C           -1.79831718        1.13497553        3.01495235
 C           -2.63395457        0.27114819        2.20196965
 C            0.01143752        2.24778629        1.78794928
 C           -1.33549294        2.19091614        2.13478562
 C            0.36632392        2.71122527        0.51762433
 C            2.44229270        1.51561229        0.68335270
 C            1.67237007        2.50003616        0.06895312
 C            3.25066577       -0.70548223        0.32918465
 C            3.16069851        0.60848269       -0.10674656
 C            2.29469208       -2.91332124        0.08020252
 C            2.68331687       -1.69994316       -0.47624097
 C            0.36156898       -3.98400161        0.86352289
 C           -0.92028742       -3.40696019        1.22926561
 C            1.02307417       -3.47819500       -0.32808736
 C           -2.35320072       -1.55481807        0.65915538
 C           -1.58422313       -2.65550725        0.27126120
 C           -3.04688847       -0.84204291       -0.33242870
 C           -3.11776163        1.08358678        1.10809572
 C           -2.33336090        2.31131804        1.09618931
 C           -3.42813882        0.49206761       -0.10784358
 C           -0.63075634        3.15752615       -0.36949148
 C           -1.97358046        2.84868667       -0.13033980
 C           -0.27788627        3.65155142       -1.62242973
 C            2.07748003        2.98214117       -1.17068736
 C            1.10849884        3.60847636       -2.04179929
 C            3.23938878        0.81816887       -1.47329496
 C            2.89779294        2.12202322       -1.99668925
 C            2.13148083       -1.32891710       -1.70688317
 C            2.62808111       -0.18464010       -2.32421062
 C            0.25363393       -2.78096599       -1.25315501
 C           -1.12042130       -2.71829179       -1.03831089
 C            0.85472641       -1.79493585       -2.04404935
 C           -3.03793582       -1.36382200       -1.63039650
 C           -1.91568616       -2.18614607       -2.03358353
 C           -3.36314426       -0.52663127       -2.76854786
 C           -3.60353939        1.36351895       -1.18217405
 C           -2.81987558        2.58805813       -1.20756762
 C           -3.68884070        0.85800359       -2.53444612
 C           -1.07174714        3.26788591       -2.77532357
 C           -2.36040771        2.80056025       -2.57100599
 C           -2.81233591        1.66753230       -3.36414859
 C            1.15751940        2.91610851       -3.32434301
 C            2.19367636        1.91317380       -3.24782827
 C            1.81256418        0.51285489       -3.30075835
 C           -0.19056502        2.48863903       -3.62459113
 C            0.05740671       -1.08662006       -2.95354597
 C           -1.26138975       -1.49496946       -3.12635827
 C           -2.22725506       -0.57269436       -3.68094441
 C           -1.81240121        0.78686202       -3.94592793
 C            0.47087806        0.16462795       -3.42856567
 C           -0.47159557        1.13559294       -3.81455420
