   70
C70 / DATE: 7/ 1/2024 / Origin: Program Fullerene / C70 from database
 C            1.47876156        0.09904488        5.28681147
 C            0.64915346       -1.04129152        4.92748276
 C            1.46198772       -1.91726635        4.12480564
 C            2.60475455        0.11764481        4.37046129
 C            2.69689113       -1.20538634        3.80638225
 C            2.42877257        1.24265127        3.46616123
 C            0.70172533        1.29513721        5.03732114
 C            1.41969815        2.10111486        4.06178634
 C           -0.58046051       -0.52969741        4.35620093
 C           -0.65170749        0.87705837        4.71790657
 C           -0.98540557       -0.92968332        3.07591321
 C            0.92450275       -2.40960264        2.86966438
 C           -0.29093330       -1.93300788        2.37925187
 C            2.88058153       -1.32649498        2.37882481
 C            2.04329251       -2.43001419        1.96292220
 C            2.42613820        1.02799190        2.08204081
 C            2.89195860       -0.18903374        1.56479236
 C            1.74233628        1.92045869        1.24708727
 C            0.67362421        2.92305474        3.23365582
 C            0.94452132        2.91827266        1.80398010
 C           -1.40983822        1.72082027        3.92649036
 C           -0.77102508        2.91542172        3.39263259
 C           -1.93243934       -0.15558752        2.40536283
 C           -2.19387169        1.14600465        2.84881108
 C           -2.33232611       -0.50453143        1.11370471
 C           -0.55896528       -2.13850521        1.01792399
 C           -1.67163178       -1.53861829        0.43840974
 C            1.77934165       -2.50082247        0.61479040
 C            0.45726341       -2.63475729        0.19058803
 C            2.80858536       -0.42475978        0.19016784
 C            2.60898373       -1.74910181       -0.19198115
 C            1.60478925        1.63237316       -0.11288259
 C            2.33695870        0.58189094       -0.66014727
 C            0.53211681        2.17583898       -0.83017902
 C           -0.28531173        3.28580895        1.12522387
 C           -1.35745684        3.18709796        2.09551741
 C           -2.38061413        2.19048948        1.85893366
 C           -0.52146368        2.76655122       -0.14005104
 C           -2.99059478        0.47134224        0.36799312
 C           -2.58921703        1.78375667        0.55569588
 C           -1.81756702        2.36021822       -0.45372177
 C           -3.45137211        0.14739537       -0.89205235
 C           -1.94623329       -1.75774425       -0.91496825
 C           -3.06713914       -1.13063272       -1.44764293
 C            0.25688942       -2.72379281       -1.19460102
 C           -0.92637856       -2.22323535       -1.76288018
 C            2.56646017       -2.04378806       -1.53213259
 C            1.41263080       -2.79570243       -1.97608916
 C            2.22077878        0.29959645       -2.02682063
 C            2.67578064       -0.94617678       -2.45698646
 C            0.29592952        1.75400156       -2.13544779
 C            1.25621482        0.97691374       -2.78559176
 C           -2.08032012        1.94944797       -1.75705130
 C           -3.18174135        1.11236314       -1.93401010
 C           -1.00668648        1.84345177       -2.64608802
 C           -3.21853089       -1.00989025       -2.88230888
 C           -3.35706801        0.41112916       -3.18575720
 C           -1.05229631       -2.12117372       -3.16840084
 C           -2.17852374       -1.52702436       -3.73603159
 C            1.33968787       -2.59910133       -3.40326652
 C            2.23113890       -1.48720594       -3.72396274
 C            0.06111308       -2.30025043       -3.99174973
 C            1.09128186        0.67335924       -4.13935218
 C            1.52741870       -0.61649456       -4.63290646
 C            0.33212310       -1.32969285       -5.03972314
 C           -1.26034944        1.49136853       -3.97047679
 C           -2.45277982        0.71926620       -4.27138104
 C           -2.00268941       -0.55021550       -4.80160791
 C           -0.18963644        0.93223635       -4.77119698
 C           -0.67161173       -0.33028981       -5.32625060
