   70
C70 / DATE: 7/ 1/2024 / Origin: Program Fullerene / C70 from database
 C            1.35859551       -0.23762826        4.16084982
 C            2.51071126       -0.44475524        3.30203275
 C            2.38146987       -1.76284646        2.69945185
 C            0.50790038       -1.40812945        4.06033354
 C            1.21948635       -2.41146333        3.28914874
 C           -0.80099355       -0.97671886        3.59432967
 C            0.53208334        0.92893081        3.94178458
 C           -0.78516006        0.47024613        3.52164852
 C            1.09442480        2.01704999        3.29505203
 C            2.97855579        0.60560146        2.51630927
 C            2.38069363        1.86716729        2.62304774
 C            3.72724619        0.28848790        1.38582268
 C            2.65469875       -1.91216662        1.33816962
 C            3.51291280       -0.99834860        0.74002712
 C            1.80559924       -2.68806397        0.54130839
 C            0.47107796       -3.27117048        2.50529607
 C            0.94878800       -3.58519809        1.17370394
 C           -1.41857713       -1.71146837        2.58800044
 C           -0.95007527       -3.00534825        2.36347744
 C           -2.13526620       -1.04685167        1.58000504
 C           -1.41807873        1.10798579        2.46246469
 C           -2.17746339        0.35948483        1.55447035
 C            0.24990879        2.83622342        2.44712461
 C           -1.04184056        2.41491278        2.14507076
 C            2.39673882        2.79423555        1.49590486
 C            1.07019803        3.36924846        1.37316146
 C            3.92458042        1.28169956        0.34659440
 C            3.10063174        2.47360886        0.34856280
 C            3.41593417       -0.76747178       -0.68625004
 C            3.75618919        0.62131839       -0.93530577
 C            1.60635088       -2.35345336       -0.81131663
 C            2.35513366       -1.32221983       -1.38736057
 C            0.58857710       -2.96636820       -1.56307507
 C           -0.18817408       -4.11553446        0.45517601
 C           -1.38443822       -3.72811145        1.19137067
 C           -0.38112218       -3.72489680       -0.92123856
 C           -2.73343000       -1.78871326        0.54846549
 C           -2.27001149       -3.06599166        0.26341456
 C           -1.77384006       -3.33882458       -1.07330155
 C           -3.39418420       -1.13041938       -0.47717268
 C           -2.93553473        1.02707791        0.58707744
 C           -3.56262959        0.30393645       -0.42054717
 C           -1.69891114        3.07316146        1.11569743
 C           -2.77913661        2.40018615        0.42601883
 C            0.48335190        3.53229604        0.12123250
 C           -0.89175106        3.74612730        0.10888661
 C            2.43216658        2.56246438       -0.94002033
 C            2.84517831        1.41875240       -1.73402962
 C            1.10263706        2.97981155       -1.01105582
 C            1.84234921       -0.62977256       -2.48131889
 C            1.88466246        0.76727979       -2.49372378
 C            0.24256653       -2.43857950       -2.80471022
 C            0.95575486       -1.28594556       -3.31942990
 C           -2.11077428       -2.46456511       -2.10306666
 C           -3.08878179       -1.49662770       -1.85441691
 C           -1.16991478       -2.25687056       -3.11133096
 C           -3.55307469        0.80730383       -1.78816013
 C           -3.16822834       -0.28769085       -2.66401092
 C           -2.85234913        2.97190337       -0.90800779
 C           -1.61029784        3.69025083       -1.14492301
 C           -3.07232029        2.08638077       -2.03606862
 C            0.32938040        2.56563738       -2.10483069
 C            0.75122918        1.47970013       -2.87827919
 C           -0.95748307        3.07053528       -2.27394319
 C           -1.95795114        2.26775184       -2.95604550
 C            0.02449398       -0.50062721       -4.10958924
 C           -1.28981800       -1.11243041       -3.99581877
 C           -2.24077713       -0.06688557       -3.67383929
 C           -0.11463276        0.91100712       -3.80848642
 C           -1.53523562        1.20439227       -3.73981884
