   70
C70 / DATE: 7/ 1/2024 / Origin: Program Fullerene / C70 from database
 C            1.23265944        0.12724043        4.68629046
 C            2.42982804        0.03298788        3.87820924
 C            2.43220820       -1.28429549        3.27152107
 C            0.39437570       -1.02085690        4.36440256
 C            1.09114345       -1.81750431        3.37437598
 C           -0.92733389       -0.52664078        4.04544752
 C            0.41553379        1.31583628        4.56567661
 C           -0.95893284        0.88555393        4.37243919
 C            0.70992962        2.27057152        3.51156803
 C            2.64329350        0.99648731        2.80830322
 C            1.69597125        1.98669391        2.56040784
 C            2.99631296       -1.14486199        1.94901710
 C            3.20413423        0.26628813        1.68618118
 C            2.46497065       -1.89586184        0.91856641
 C            0.43450731       -2.17435360        2.19810160
 C            1.19374533       -2.46627716        1.06484625
 C           -1.53425377       -0.93096034        2.86541867
 C           -0.92353947       -1.88741742        2.04495314
 C           -2.52218083       -0.11696125        2.32656744
 C           -1.57320426        1.79809644        3.41865291
 C           -0.57152355        2.79305457        3.07198867
 C           -2.37489034        1.27317510        2.40625716
 C           -0.64336057        3.40046463        1.83077091
 C            1.56854893        2.49758741        1.26680293
 C            0.54027632        3.39895793        0.99244768
 C            2.97208397        0.72481952        0.39009357
 C            2.29906777        1.93521186        0.21129103
 C            2.87536996       -1.56335184       -0.35826725
 C            3.00944318       -0.20147121       -0.66372489
 C            2.56908857       -2.47107307       -1.35309134
 C            0.55209404       -2.96785362       -0.07136219
 C            1.32712866       -3.20509627       -1.21214608
 C           -1.57430536       -2.27917991        0.87015644
 C           -0.83747821       -2.83374510       -0.18469200
 C           -3.35513155       -0.66510722        1.36658563
 C           -2.88095833       -1.83339397        0.64557403
 C           -3.98498368        0.22194671        0.41315367
 C           -2.63911298        2.06319514        1.28106290
 C           -1.77520000        3.10814586        0.96536379
 C           -3.44214899        1.55515973        0.26544490
 C            0.09042796        3.58379397       -0.37387635
 C           -1.32565743        3.25440651       -0.41089530
 C            2.11049918        2.41311068       -1.08241026
 C            0.90305678        3.15598843       -1.40490984
 C            2.85565610        0.24820711       -1.98310511
 C            2.39198341        1.54178643       -2.21077244
 C            2.72096369       -2.08014917       -2.73298601
 C            2.80217852       -0.66788663       -3.03360661
 C            0.70756814       -3.27249519       -2.52441484
 C            1.60585624       -2.64060500       -3.47750828
 C           -1.45667433       -3.03383689       -1.41977095
 C           -0.65828772       -3.06773549       -2.63188648
 C           -3.40470054       -1.75488079       -0.70885777
 C           -3.95517350       -0.42329483       -0.88550206
 C           -2.65661026       -2.28860779       -1.74204914
 C           -3.00651167        1.70855744       -1.11702603
 C           -1.81598577        2.37716411       -1.37929525
 C           -3.30447245        0.47735127       -1.82243743
 C            0.29004089        2.49631163       -2.53948147
 C            1.34654075        1.76212291       -3.20244849
 C           -0.96729639        1.91266434       -2.39029555
 C            1.89738848       -0.41088068       -4.14160423
 C            1.09081841       -1.60169875       -4.34810124
 C            1.00189900        0.72668350       -4.05264143
 C           -1.17754460       -2.03678063       -3.52806264
 C           -2.31586506       -1.43078114       -2.86506999
 C           -2.36692183       -0.04594259       -2.70370180
 C           -1.27164828        0.73376732       -3.08690197
 C           -0.30408319       -1.21918911       -4.23203153
 C           -0.36062082        0.21763805       -4.01300552
