   70
C70 / DATE: 7/ 1/2024 / Origin: Program Fullerene / C70 from database
 C            1.08071861       -0.21466094        4.67295191
 C            2.35085061       -0.51185456        4.04610781
 C            2.22802212       -1.79519960        3.37242351
 C            0.22871015       -1.38067653        4.50716163
 C            0.85220371       -2.23677350        3.51716981
 C           -1.11395177       -0.90668173        4.26167502
 C            0.33248437        0.94038943        4.20894567
 C           -1.06122396        0.54493082        4.15999313
 C            0.84531737        1.72046169        3.17266181
 C            2.87653403        0.42976012        3.08119438
 C            2.20674996        1.62455947        2.84245156
 C            2.77213875       -1.64831966        2.02890477
 C            3.35147130       -0.32349564        1.93389994
 C            2.03777157       -2.13486597        0.95569078
 C            0.15438643       -2.59227802        2.36548394
 C            0.89345783       -2.88395206        1.22068123
 C           -1.81984100       -1.39498990        3.09311310
 C           -1.21246501       -2.30156375        2.23257592
 C           -1.85137995        0.92890463        3.00574386
 C           -2.50561074       -0.26766992        2.50650999
 C           -0.04634953        2.35747955        2.29693221
 C           -1.31903794        1.82337246        2.08163596
 C            0.43259870        3.31358000        1.41243017
 C            2.70362746        2.40207697        1.80457840
 C            1.86271851        3.43208331        1.23524429
 C            3.37662411        0.31982530        0.70074848
 C            3.36762448        1.71585528        0.70623760
 C            2.18619693       -1.54133360       -0.30080190
 C            2.92826111       -0.36138303       -0.43606434
 C            1.46731225       -2.05752026       -1.38549280
 C            0.24461001       -3.49590798        0.16296600
 C            0.69008299       -3.19347237       -1.18246731
 C           -1.81519186       -2.51971382        0.99251307
 C           -1.20113244       -3.43433785        0.14740927
 C           -2.81208079       -0.31871597        1.15558720
 C           -2.63819989       -1.51561053        0.45167023
 C           -1.87580243        1.85862763        0.79946106
 C           -2.80407923        0.87440911        0.44628807
 C           -0.18763035        3.43285511        0.10456337
 C           -1.29865860        2.65679694       -0.19501365
 C            2.13728534        3.49776246       -0.18998770
 C            3.08571124        2.44840064       -0.51600904
 C            0.86480413        3.53109085       -0.88861444
 C            2.95531907        0.29157640       -1.66420707
 C            2.91159762        1.74459739       -1.69635544
 C            1.30339930       -1.29664138       -2.54954435
 C            2.12455215       -0.19261082       -2.75483643
 C            0.18691164       -1.48415618       -3.37933530
 C           -0.42922758       -3.45622934       -2.05986789
 C           -1.62427676       -3.53610338       -1.22971391
 C           -0.70527736       -2.52253020       -3.12863464
 C           -3.03482983       -1.55737936       -0.89508678
 C           -2.57044705       -2.56804673       -1.73637281
 C           -2.13017862       -2.23492835       -3.08169475
 C           -3.35276515        0.87406229       -0.82571274
 C           -3.57907609       -0.40764621       -1.46999699
 C           -1.59352339        2.40161001       -1.53358035
 C           -2.79880143        1.76883703       -1.82000156
 C            0.72173470        2.81460790       -2.07214588
 C            1.81904741        2.11321741       -2.57993376
 C            1.59491060        0.97095133       -3.44804088
 C           -0.56119038        2.45015921       -2.48520859
 C           -0.23333528       -0.44882566       -4.21232776
 C            0.37474263        0.86206194       -4.09004528
 C           -0.68385272        1.77202505       -3.69798754
 C           -2.59962904       -1.07307867       -3.67772505
 C           -3.46389065       -0.19861904       -2.90563643
 C           -3.02711691        1.17259430       -3.12056963
 C           -1.65965543       -0.23505804       -4.40399795
 C           -1.94078003        1.15330855       -4.07059425
