   70
C70 / DATE: 7/ 1/2024 / Origin: Program Fullerene / C70 from database
 C            1.23241627       -0.02881286        4.30328913
 C            2.53970049       -0.39881580        3.81051093
 C            2.46590893       -1.77375400        3.33891215
 C            0.39496890       -1.21389886        4.23435939
 C            1.07532561       -2.18918892        3.41482286
 C           -0.91446896       -0.78729820        3.81939057
 C            0.51727770        1.04893598        3.63846361
 C           -0.86991765        0.64429085        3.56538898
 C            1.09268978        1.68201246        2.54198495
 C            3.11627570        0.39334476        2.74783057
 C            2.46756532        1.54386929        2.30789485
 C            3.15053494       -1.84572284        2.05880212
 C            3.63941495       -0.51439304        1.74279237
 C            2.59062725       -2.60924497        1.05074450
 C            0.44761943       -2.66948273        2.26486701
 C            1.24765085       -3.14355947        1.22967993
 C           -1.62297449       -1.56635898        2.92073472
 C           -0.90690145       -2.38043286        2.02027820
 C           -2.82491993       -1.01460302        2.51295598
 C           -1.68331361        1.14071568        2.55074326
 C           -2.84945493        0.42286532        2.29025400
 C            0.26213317        2.21131670        1.54551422
 C           -1.10795707        1.89131903        1.51628562
 C            0.81974244        3.01625686        0.54689520
 C            3.01682588        2.15754290        1.19199520
 C            2.20196265        3.05512870        0.40265986
 C            3.66604818       -0.06202195        0.42431316
 C            3.75332761        1.31673047        0.26072344
 C            2.69684701       -2.14732638       -0.32104554
 C            3.05875517       -0.83025516       -0.58301813
 C            0.68102345       -3.32724846       -0.08698093
 C            1.59553818       -2.73645108       -1.05490136
 C           -1.48818732       -2.75504126        0.79123435
 C           -0.68361998       -3.16926728       -0.27676566
 C           -3.56648869       -1.65127261        1.45525789
 C           -2.84619982       -2.52748039        0.56328029
 C           -3.58568775        0.66307024        1.06776495
 C           -4.17292659       -0.60202739        0.65569656
 C           -1.87634973        2.21190556        0.38929653
 C           -3.03953942        1.49420490        0.10104183
 C            0.02698792        3.47143028       -0.50248367
 C           -1.36593963        3.08071375       -0.56729207
 C            0.55621343        3.46797218       -1.86159657
 C            2.77374121        3.06987547       -0.93271895
 C            3.60843572        1.88574391       -1.05866914
 C            1.87734911        3.09707740       -2.07222543
 C            2.60540811       -0.22613172       -1.76448820
 C            3.03245184        1.05970689       -2.09253854
 C            2.16791136        1.91991781       -2.87961263
 C            1.06422402       -2.06798958       -2.15074904
 C            1.58948839       -0.82575172       -2.52213588
 C           -1.12903355       -3.00181819       -1.58633336
 C           -0.21812530       -2.42728555       -2.56299162
 C           -3.30966649       -2.23662776       -0.78387147
 C           -4.07100313       -0.99504037       -0.73729120
 C           -2.45902647       -2.48297797       -1.85071681
 C           -3.43203878        1.31728572       -1.22526893
 C           -3.82893342       -0.00554549       -1.68196623
 C           -1.70810762        2.88252179       -1.96684926
 C           -0.47838686        2.94865199       -2.73823836
 C           -2.67549305        1.94363161       -2.29354817
 C            1.15653793        1.33467358       -3.62480626
 C            0.98211143       -0.10506320       -3.55169248
 C           -0.17018656        1.93301193       -3.63803901
 C           -0.98502428       -1.54959206       -3.43038445
 C           -2.35412029       -1.51995856       -2.93785325
 C           -3.03785138       -0.31163047       -2.86181336
 C           -2.38556588        0.91853530       -3.28646898
 C           -0.39455196       -0.39070752       -3.91136983
 C           -1.12907826        0.86581938       -3.87993437
