   70
C70 / DATE: 7/ 1/2024 / Origin: Program Fullerene / C70 from database
 C            1.07735083        0.21381424        4.83664599
 C            2.38740353        0.04544346        4.24404411
 C            2.50785718       -1.35370464        3.89251533
 C            0.29592589       -0.97665058        4.51730176
 C            1.16283777       -1.89415282        3.81433859
 C           -0.92020803       -0.54286532        3.86803322
 C            0.29439042        1.36282549        4.44034407
 C           -1.03155011        0.87984508        4.10131725
 C            0.74395568        2.16426425        3.31490453
 C            2.73001982        0.81404970        3.05686579
 C            1.82297976        1.73610348        2.54056463
 C            3.33126480       -1.43276968        2.70460462
 C            3.41691791       -0.08440779        2.14669726
 C            3.08177844       -2.47975797        1.83440378
 C            0.74962840       -2.44865404        2.60455223
 C            1.73204707       -3.03521494        1.81155714
 C           -1.22883982       -1.02258353        2.59878966
 C           -0.44977060       -2.02439076        2.00652986
 C           -2.10816836       -0.28778001        1.80253055
 C           -1.51643556        1.70222883        3.01382626
 C           -0.45759264        2.62039329        2.64192068
 C           -2.21159984        1.09994586        1.97731283
 C           -0.37674000        2.98220625        1.30357974
 C            1.80807262        1.99288547        1.16943446
 C            0.86038486        2.88416112        0.66495968
 C            3.27433589        0.09617421        0.76937008
 C            2.50275638        1.15586287        0.28498614
 C            3.50018496       -2.31869528        0.45982275
 C            3.55736948       -0.97351912       -0.07868198
 C            1.42495744       -3.39836561        0.44556183
 C            2.58326192       -3.07917920       -0.36377558
 C           -0.77903661       -2.45558185        0.71386926
 C            0.17747956       -3.10006360       -0.07876985
 C           -2.59449553       -0.85893274        0.62735698
 C           -1.95378946       -1.98841993        0.10637013
 C           -3.42104574       -0.08336074       -0.18660616
 C           -2.46734203        1.88629160        0.86071173
 C           -1.53540647        2.87675233        0.53073301
 C           -3.30487243        1.35957565       -0.11109429
 C           -1.52764796        3.43858216       -0.74188315
 C            0.95359428        3.27007817       -0.66675342
 C           -0.24260945        3.75377206       -1.33385798
 C            2.25995979        1.25148694       -1.08856208
 C            1.65178561        2.39306336       -1.58919293
 C            2.96164849       -1.01401865       -1.40526292
 C            2.36311846       -2.32565066       -1.58197262
 C            2.26457233        0.09707559       -1.86826169
 C            0.07092940       -3.00056673       -1.46158750
 C            1.10742961       -2.37847597       -2.16499607
 C           -2.26977833       -2.43876765       -1.17947729
 C           -1.20416780       -2.97857972       -2.00410615
 C           -3.62991268       -0.44005492       -1.57619706
 C           -3.13704370       -1.64922689       -2.04062339
 C           -3.28066148        1.88624641       -1.46381241
 C           -2.37509947        2.88817239       -1.78634354
 C           -3.49096898        0.77366563       -2.37648216
 C           -0.23744928        3.23984864       -2.69081354
 C            0.85794516        2.29212548       -2.80192721
 C           -1.58121917        2.78785053       -3.00437464
 C            1.26820432       -0.08268044       -2.83721283
 C            0.78054552       -1.37745532       -3.07131773
 C            0.60621598        1.03899804       -3.35553612
 C           -1.37158203       -2.45970499       -3.34967718
 C           -2.63298745       -1.74493648       -3.39940537
 C           -0.34148412       -1.57937578       -3.86364148
 C           -2.81283745        0.74435975       -3.59095422
 C           -1.72193423        1.67563386       -3.82370351
 C           -0.54214003        0.88164443       -4.13072357
 C           -2.41643344       -0.52977402       -4.16261432
 C           -0.99625929       -0.44710823       -4.47615398
