   70
C70 / DATE: 7/ 1/2024 / Origin: Program Fullerene / C70 from database
 C            1.34273678        0.08708906        4.73104487
 C            2.58101208       -0.06593232        3.99619458
 C            2.57278111       -1.37809436        3.36853490
 C            0.52369442       -1.08590206        4.47420531
 C            1.27678054       -1.98363060        3.61212947
 C           -0.78304772       -0.63418372        4.02311264
 C            0.52833415        1.25769924        4.48116215
 C           -0.81153387        0.80819867        4.13124021
 C            0.94365511        2.21173858        3.46725223
 C            2.92537091        0.90461894        2.97185842
 C            2.15149462        2.05229480        2.78115037
 C            3.01279086       -1.22170135        1.99103076
 C            3.39113781        0.16554944        1.80757209
 C            2.29781460       -1.86310916        0.98612822
 C            0.61525626       -2.57441906        2.54197597
 C            1.31839916       -2.78361124        1.35422176
 C           -1.32589196       -1.23438062        2.89364228
 C           -0.76915149       -2.43541541        2.47274803
 C           -2.03244988       -0.46358375        1.96217006
 C           -1.25400194        1.57651537        2.98351643
 C           -0.24823382        2.58714154        2.72285900
 C           -1.82640753        0.91669789        1.90105067
 C           -0.10140352        3.05335860        1.42560882
 C            2.32238857        2.75702530        1.59343721
 C            1.17334519        3.41958794        1.00295061
 C            3.24875839        0.74446017        0.55449719
 C            3.03708188        2.11867457        0.50104496
 C            2.25611293       -1.29688422       -0.29158828
 C            2.85053496       -0.04991853       -0.52405147
 C            1.49591090       -1.91146650       -1.29415781
 C            0.70913424       -3.53733399        0.36053534
 C            0.83870589       -3.10272141       -1.02021416
 C           -1.45412845       -3.16965524        1.51990740
 C           -0.67063092       -3.93133109        0.56643288
 C           -2.61203882       -1.10893976        0.86840278
 C           -2.50450082       -2.49976716        0.77587457
 C           -2.96157776       -0.37156446       -0.26665232
 C           -1.83597290        1.55310873        0.66022931
 C           -1.05378917        2.69946728        0.46962659
 C           -2.45935671        0.92885779       -0.42592953
 C           -0.94832287        3.25586709       -0.79707994
 C            1.44143478        3.57165644       -0.41825723
 C            2.58852816        2.73238175       -0.73718700
 C            0.36680439        3.62251674       -1.29449512
 C            2.75618504        0.52936641       -1.78725010
 C            2.57975673        1.96884633       -1.89632771
 C            1.16662579       -1.20910561       -2.45124829
 C            1.92340842       -0.09633048       -2.79832338
 C           -0.03199948       -1.48038587       -3.12486477
 C           -0.40943553       -3.39031285       -1.70589573
 C           -1.35112620       -3.87953922       -0.71232379
 C           -2.59190139       -3.14996719       -0.52218747
 C           -0.87743935       -2.50202585       -2.67015095
 C           -3.49965752       -1.05512759       -1.35441554
 C           -3.07417354       -2.41955028       -1.59222266
 C           -2.26213444       -2.35885057       -2.79247163
 C           -3.54223046       -0.41759830       -2.65338149
 C           -2.81130255       -1.27534805       -3.58005117
 C           -2.51105691        1.57795094       -1.67026508
 C           -1.69183006        2.67854595       -1.89539962
 C           -3.00987276        0.91696506       -2.78878877
 C            0.50094614        3.05932116       -2.62735161
 C            1.57009498        2.21683494       -2.91274473
 C            1.32926781        0.95867369       -3.60136136
 C           -0.83199624        2.69406861       -3.07142803
 C           -0.47919195       -0.60002200       -4.11319803
 C           -1.90234883       -0.44049040       -4.33217434
 C           -2.22499843        0.93730561       -4.01135158
 C            0.10069442        0.72850712       -4.20349409
 C           -0.98184222        1.68730852       -4.01506329
