   70
C70 / DATE: 7/ 1/2024 / Origin: Program Fullerene / C70 from database
 C            1.25472146        0.01228290        4.22637234
 C            2.61016994       -0.31613467        3.85527228
 C            2.63106073       -1.71170404        3.44239115
 C            0.45016848       -1.18817267        4.06110490
 C            1.25123624       -2.15878664        3.35043644
 C           -0.80861780       -0.78419283        3.47981926
 C            0.57723445        1.08039888        3.51757814
 C           -0.80092910        0.65802545        3.35640250
 C            1.20374043        1.72887854        2.45139212
 C            3.24476937        0.45089778        2.80562122
 C            2.55957703        1.49161991        2.17338267
 C            3.48191833       -1.81316888        2.26819456
 C            4.01272530       -0.48521968        2.00071938
 C            3.06192631       -2.60728574        1.20935712
 C            0.78370338       -2.67268595        2.14229865
 C            1.70809360       -3.14542535        1.21741776
 C           -1.33579231       -1.50764120        2.42463763
 C           -0.53130667       -2.42216531        1.72738437
 C           -2.42477752       -0.95208926        1.76966681
 C           -1.54121879        1.22339442        2.32760292
 C           -2.50643757        0.44589086        1.67693821
 C            0.39528947        2.40166430        1.52431426
 C           -0.99787951        2.31089508        1.65389474
 C            0.94244798        2.91410980        0.34140459
 C            3.12620905        2.03162194        1.02519937
 C            2.28171323        2.69357454        0.05375692
 C            4.35027235       -0.12414941        0.70232959
 C            4.10213026        1.24429849        0.28725495
 C            3.37511318       -2.21577077       -0.15690962
 C            3.97972806       -0.99207375       -0.40811505
 C            1.30356564       -3.33105925       -0.16082140
 C            2.27367710       -2.64507269       -0.99985095
 C           -0.97351218       -2.91546179        0.48954619
 C           -0.03984139       -3.24077058       -0.50092912
 C           -3.09140535       -1.75493103        0.86164076
 C           -2.31310309       -2.73817275        0.13495679
 C           -4.04472635       -1.16254298       -0.04715545
 C           -3.31647870        1.05542337        0.70914257
 C           -4.09978051        0.28007060       -0.14497244
 C           -1.81401884        2.99568653        0.76343335
 C           -3.07417732        2.38593759        0.37195076
 C            0.09017212        3.17974820       -0.73004326
 C           -1.21497919        3.54884904       -0.43173200
 C            0.40651995        2.62978854       -1.98167716
 C            2.60172640        2.15582316       -1.25357538
 C            3.69018611        1.21961108       -1.10510856
 C            3.45874488       -0.15715407       -1.47959874
 C            1.53716674        1.83107517       -2.07822943
 C            1.80579368       -1.81919221       -2.01947190
 C            2.25235921       -0.49677366       -2.09147416
 C            1.38844130        0.51569847       -2.54423871
 C           -0.33503735       -2.97285011       -1.83527843
 C            0.59431163       -2.16097717       -2.60366078
 C           -2.68210885       -2.63289815       -1.26865752
 C           -3.77682444       -1.68854200       -1.37646651
 C           -1.68145403       -2.60471859       -2.22351757
 C           -4.15293068        0.60590758       -1.56190888
 C           -3.64841950       -0.55636556       -2.27826735
 C           -3.38526384        2.84779157       -0.97172593
 C           -2.22595723        3.56954020       -1.47076078
 C           -3.77812644        1.87537872       -1.97688865
 C           -0.56679175        2.46965580       -2.95614428
 C           -1.88890876        3.03061099       -2.76746987
 C           -2.85844835        1.99798201       -3.09310683
 C            0.23196212        0.17443739       -3.26083403
 C           -0.17427093       -1.15365411       -3.30557065
 C           -1.58515662       -1.47439902       -3.13889855
 C           -2.51452140       -0.43681934       -3.08503773
 C           -0.70929815        1.16046322       -3.55983475
 C           -2.12607500        0.82198909       -3.53488284
