   70
C70 / DATE: 7/ 1/2024 / Origin: Program Fullerene / C70 from database
 C            1.38606181        0.00198526        4.70904968
 C            0.57708959       -1.17441449        4.44438726
 C            1.28963823       -2.00710072        3.50597354
 C            2.55445372       -0.06190979        3.84880151
 C            2.51830609       -1.31557146        3.13563131
 C            2.59757607        1.15156978        3.07065475
 C            0.61173257        1.16741950        4.31631681
 C            1.37141025        1.89326577        3.33189513
 C           -0.74427240       -0.72863415        4.07661605
 C           -0.70769154        0.72200684        3.94814327
 C           -1.45631966       -1.44279671        3.12054622
 C            0.57462938       -2.66158057        2.50746377
 C           -0.80584649       -2.43519499        2.36527178
 C            1.30599659       -3.14534003        1.42518914
 C            2.91509835       -1.34490045        1.80211546
 C            2.53264782       -2.45872635        1.05866470
 C            3.05269978        1.09742969        1.75778630
 C            3.24796454       -0.15001001        1.13924132
 C            2.76837654        2.20845408        0.96936806
 C            0.71398713        2.46602340        2.24762652
 C            1.53453483        2.92975849        1.23117051
 C           -1.34380065        1.29760460        2.85071761
 C           -0.60247249        2.07178286        1.93621083
 C           -2.56089259       -0.79348077        2.57929722
 C           -2.49019633        0.64955171        2.41493450
 C           -3.24507171       -1.34468505        1.42733782
 C           -1.48787096       -3.04933595        1.31167124
 C           -2.73033471       -2.47742810        0.81590305
 C            0.63414875       -3.54238071        0.20171361
 C           -0.74657213       -3.54001915        0.16096176
 C            2.61943621       -2.44115518       -0.38942006
 C            1.37765342       -2.98353553       -0.91519428
 C            3.57209566       -0.19415110       -0.21911430
 C            3.19345657       -1.35004104       -1.01539107
 C            2.96845622        2.16345468       -0.46633504
 C            3.39397409        0.98791156       -1.04949977
 C            0.96166141        3.30617090       -0.03593544
 C            1.89131554        2.91434448       -1.08464766
 C           -1.13386840        2.35626670        0.65891761
 C           -0.39593190        3.12876181       -0.25058021
 C           -3.05876375        0.97530707        1.12973066
 C           -3.69799081       -0.22505974        0.61760819
 C           -2.35463343        1.79143487        0.25677651
 C           -3.82169947       -0.37436764       -0.75464316
 C           -2.72027243       -2.57325856       -0.63645267
 C           -1.41265204       -3.05838939       -1.03477284
 C           -3.32227861       -1.58243586       -1.39890138
 C            0.70694840       -2.30211257       -1.93079279
 C           -0.69180217       -2.36060069       -2.00403086
 C            2.61668219       -0.86688988       -2.25737559
 C            2.80690915        0.57268097       -2.31031477
 C            1.41929111       -1.40156769       -2.72936588
 C            1.36790994        2.52628750       -2.31532483
 C            1.82882508        1.34825972       -2.93218219
 C           -0.84053127        3.26867319       -1.56163769
 C            0.11282601        3.04292481       -2.63796715
 C           -2.73380474        1.80939341       -1.08680140
 C           -3.47203609        0.74703899       -1.60946674
 C           -2.09714255        2.67491869       -1.96153981
 C           -2.69566220       -1.17976976       -2.64827210
 C           -1.38202486       -1.56402374       -2.92038571
 C           -3.10526824        0.19171895       -2.90022967
 C            0.75824381       -0.70508218       -3.73357907
 C            1.05122019        0.71008580       -3.89989756
 C           -0.67088095       -0.87772812       -3.89660046
 C           -0.61530381        2.54516049       -3.78549573
 C           -1.98788860        2.31069259       -3.36712786
 C           -2.36072573        0.96742227       -3.77674575
 C           -0.13371244        1.34976018       -4.43321161
 C           -1.20704088        0.36815652       -4.42446063
