   70
C70 / DATE: 7/ 1/2024 / Origin: Program Fullerene / C70 from database
 C            1.47202435        0.00563025        4.52748894
 C            0.69332341       -1.16605289        4.17147287
 C            1.46885006       -1.95701699        3.24471350
 C            2.65872785        0.01723194        3.69003303
 C            2.66737917       -1.19760753        2.91090325
 C            2.68976731        1.27396782        2.98183330
 C            0.68309183        1.17815751        4.19108527
 C            1.48194584        2.01363737        3.32491202
 C           -0.60930251       -0.72019478        3.74198082
 C           -0.60174284        0.73228424        3.70003386
 C           -1.22504527       -1.38236804        2.69423678
 C            0.80951484       -2.62915820        2.21838738
 C           -0.56293257       -2.41879314        2.01821677
 C            1.58285775       -3.04186099        1.14480736
 C            3.06613999       -1.14758424        1.57888953
 C            2.75382048       -2.25412834        0.79294044
 C            3.11924149        1.29875873        1.65810957
 C            3.31664079        0.09187141        0.96343340
 C            2.84933683        2.46412580        0.94390005
 C            0.85030919        2.72986306        2.31451974
 C            1.66767418        3.22784343        1.30492206
 C           -1.14655429        1.36305029        2.58180579
 C           -0.50331423        2.48276664        2.03779985
 C           -2.23789811       -0.70782898        2.03344763
 C           -2.08742422        0.66342158        1.81492277
 C           -3.07173204       -1.45282506        1.22202757
 C           -1.20820255       -3.00705539        0.91814746
 C           -2.56755857       -2.72445171        0.74138621
 C            0.93798897       -3.45834707       -0.08074661
 C           -0.44756163       -3.50690833       -0.15384600
 C            2.82450390       -2.17419245       -0.65471251
 C            1.66726163       -2.86858778       -1.19267322
 C            3.60583662        0.12728451       -0.40298859
 C            3.24223760       -0.99749089       -1.24766146
 C            2.97758264        2.49169919       -0.50082303
 C            3.35797183        1.33802469       -1.16771577
 C            1.08337640        3.76154767        0.08972994
 C            1.90231260        3.31850247       -1.02906851
 C           -1.11553910        3.15687968        0.98553311
 C           -0.29763106        3.79797528       -0.03262402
 C           -2.64255562        1.25769905        0.67620180
 C           -2.25271895        2.54560295        0.32005792
 C           -3.75566915       -0.80308193        0.12473666
 C           -3.38713007        0.49063843       -0.22545897
 C           -3.22453427       -3.00037971       -0.52181603
 C           -3.94548539       -1.79945833       -0.91768656
 C           -0.99147112       -3.56402048       -1.43648007
 C           -2.41645102       -3.42284133       -1.63863844
 C            0.94300058       -2.31656596       -2.24779999
 C           -0.31258234       -2.85297954       -2.50807670
 C            2.49364632       -0.47890265       -2.37910688
 C            2.68870637        0.95908661       -2.40401563
 C            1.24456166       -1.02206628       -2.68375219
 C            1.30236273        2.98619666       -2.23789195
 C            1.69090156        1.76584016       -2.92895706
 C           -0.91570823        3.55415826       -1.32560181
 C           -2.19709659        2.91177424       -1.08495576
 C           -0.13298241        3.15561615       -2.40498959
 C           -3.45232072        0.86852539       -1.56686597
 C           -2.71475892        2.03373843       -2.02561465
 C           -3.56549469       -1.47236029       -2.28062897
 C           -2.61472654       -2.47624863       -2.72531818
 C           -1.30376111       -2.04835613       -3.19170662
 C           -3.32639406       -0.14397984       -2.60229970
 C            0.24297163       -0.20822492       -3.23295872
 C            0.48503203        1.14801628       -3.44984938
 C           -0.60109159        2.09786859       -3.28617428
 C           -1.89381287        1.61305834       -3.15431371
 C           -1.05810972       -0.69467554       -3.37903146
 C           -2.13360608        0.19425125       -3.35976769
