   70
C70 / DATE: 7/ 1/2024 / Origin: Program Fullerene / C70 from database
 C            1.46588524        0.13630523        4.78481296
 C            0.64968678       -1.06360508        4.78001336
 C            1.21569084       -1.99211390        3.81910738
 C            2.51377815       -0.03579412        3.79418357
 C            2.41056037       -1.37468516        3.25618999
 C            2.43929356        1.07147780        2.86513924
 C            0.62643460        1.23821497        4.34898999
 C            1.25467798        1.84128688        3.19801140
 C           -0.72800300       -0.65740641        4.61014863
 C           -0.72441080        0.74395013        4.20289264
 C           -1.58655219       -1.53005109        3.96217365
 C            0.36281064       -2.71117584        2.97822354
 C           -1.02324736       -2.58310391        3.11947399
 C            0.87701361       -3.21032847        1.78257682
 C            2.68354925       -1.56732109        1.90803546
 C            2.14647538       -2.69660704        1.30034742
 C            2.69530448        0.82682574        1.51771198
 C            3.03863248       -0.46848057        1.11438192
 C            2.17397135        1.71847298        0.57239922
 C            0.46393795        2.27093983        2.14600571
 C            1.10932351        2.54093149        0.94978868
 C           -1.47447931        1.13448774        3.09154064
 C           -0.90193056        1.95072344        2.10531543
 C           -2.71736136       -0.96404254        3.25484663
 C           -2.61853265        0.40668147        2.78381188
 C           -1.87766782       -2.71791490        1.94656718
 C           -2.98718078       -1.80539303        2.10504615
 C            0.00357273       -3.35721657        0.62739187
 C           -1.29308292       -2.86271319        0.69126709
 C            2.15118956       -2.80780960       -0.14610629
 C            0.79967183       -3.13475641       -0.56852439
 C            3.35487183       -0.68211575       -0.22225842
 C            2.87534364       -1.88818627       -0.88185381
 C            2.48449589        1.54400307       -0.78079444
 C            3.20060788        0.41277142       -1.16524496
 C            1.84453986        2.31314122       -1.75965099
 C            0.39592944        3.22909772       -0.01105075
 C            0.84894557        3.21005332       -1.38463396
 C           -1.61927336        2.22408340        0.93068422
 C           -1.04744007        3.07951633       -0.00829537
 C           -3.14308489        0.43767624        1.43093905
 C           -3.31251801       -0.93669456        1.00102893
 C           -2.62035649        1.34396439        0.51252208
 C           -1.83159520       -2.20080020       -0.42222715
 C           -2.85803585       -1.25820572       -0.26319247
 C            0.23170538       -2.46068431       -1.64536320
 C           -1.14643488       -2.24493660       -1.64534640
 C            2.38119731       -1.49612854       -2.18739851
 C            2.93740192       -0.18686295       -2.45989003
 C            1.05297539       -1.74829466       -2.53022047
 C            1.95797134        1.94749640       -3.10130542
 C            2.33422466        0.58516922       -3.43393806
 C            0.91753190        2.33744242       -4.04267018
 C           -0.33191056        3.37428946       -2.21627930
 C           -1.47849133        3.01649933       -1.39406023
 C           -0.29251916        2.96440885       -3.54088039
 C           -2.74966952        1.04979745       -0.85276666
 C           -2.98964516       -0.27871277       -1.23113422
 C           -2.31855210        1.98544107       -1.80042109
 C           -1.73573891       -1.65851062       -2.76278857
 C           -2.77383121       -0.67252895       -2.53767205
 C            0.48244723       -1.02267409       -3.57915737
 C            1.21268385        0.01985279       -4.16087955
 C            0.52969156        1.14384220       -4.77962737
 C           -0.88450031       -1.14547033       -3.81985726
 C           -1.42655237        2.23343947       -4.07899714
 C           -2.41984991        1.69724113       -3.16112535
 C           -2.67989507        0.33402186       -3.56801194
 C           -0.91359000        1.12811319       -4.87610549
 C           -1.61809181       -0.07033440       -4.47183947
