   70
C70 / DATE: 7/ 1/2024 / Origin: Program Fullerene / C70 from database
 C            1.40566969       -0.11485738        5.17810435
 C            0.61287052       -1.26519074        4.77955332
 C            1.47331902       -2.12625427        4.00388676
 C            2.60006887       -0.10192919        4.34946923
 C            2.69906393       -1.39112112        3.71292063
 C            2.54417391        1.07481124        3.50817026
 C            0.63563943        1.07435044        4.86277471
 C            1.40646407        1.87755896        3.93269204
 C           -0.60689049       -0.77188443        4.16508776
 C           -0.68700753        0.65062680        4.45594027
 C           -0.98592234       -1.23071097        2.89863791
 C            0.97953068       -2.63504494        2.74158329
 C           -0.29172717       -2.28852480        2.29026467
 C            2.89475705       -1.44261902        2.27594685
 C            2.06988822       -2.53276923        1.79910797
 C            2.82437467        0.98549925        2.14381512
 C            2.93428343       -0.26888818        1.51699201
 C            2.51677537        2.10119991        1.37819419
 C            0.72852189        2.62092297        2.96880375
 C            1.42166089        2.95713282        1.80954006
 C           -1.37185503        1.46045942        3.56797241
 C           -0.66725241        2.57111478        2.93642603
 C           -1.88440089       -0.46716041        2.14120699
 C           -2.17106930        0.83356901        2.53257123
 C           -2.22123071       -0.87503130        0.85013092
 C           -0.59448402       -2.60786279        0.96843029
 C           -1.77531651       -2.12148867        0.42598571
 C            1.74452310       -2.54882086        0.45641089
 C            0.45524132       -2.93273647        0.10185916
 C            2.72296873       -0.39058305        0.13376437
 C            2.39558215       -1.65268083       -0.37681521
 C            2.45756080        1.99423947       -0.06326408
 C            2.52180921        0.74697621       -0.65909947
 C            0.70346160        3.39051080        0.62190316
 C            1.46477757        2.93776943       -0.53557940
 C           -1.37839319        2.86918333        1.70223480
 C           -2.38548570        1.83325082        1.51198499
 C           -0.68895646        3.34365201        0.58981670
 C           -2.65732878        0.06671981       -0.09894154
 C           -2.67764708        1.42883181        0.21739496
 C           -2.88634850       -0.34111388       -1.42043223
 C           -2.16269473       -2.59188034       -0.81801376
 C           -2.90754311       -1.70852580       -1.68976822
 C            0.17794666       -3.11563718       -1.25284500
 C           -1.15469142       -3.23914352       -1.63621483
 C            2.20343843       -1.81111178       -1.74105311
 C            1.13090798       -2.69074515       -2.18347340
 C            2.05273950        0.60922603       -1.96670207
 C            2.16366906       -0.63261963       -2.57955760
 C            0.79242213        2.66268385       -1.71828500
 C            1.21874376        1.59537613       -2.51508831
 C           -1.32215612        3.26275538       -0.64691618
 C           -2.44421649        2.34882184       -0.79127757
 C           -0.51436553        3.11918161       -1.84381121
 C           -2.80075336        0.59250591       -2.46847105
 C           -2.48522504        1.91480922       -2.17161275
 C           -1.37096999        2.54810021       -2.86451697
 C           -2.59428109        0.17166213       -3.78405755
 C           -2.71126333       -2.19632880       -3.04138205
 C           -1.53391983       -3.05122558       -3.02570265
 C           -2.54613986       -1.23801987       -4.10772800
 C            0.72485776       -2.24296494       -3.50749101
 C            1.35737053       -0.94898799       -3.74492704
 C           -0.56925443       -2.49079096       -3.95159346
 C           -1.26305546       -1.49472639       -4.74754466
 C            0.57472703        1.37122616       -3.73503672
 C           -0.78061134        1.86934072       -3.91795238
 C           -1.55059960        0.81940964       -4.55778285
 C            0.65942847        0.06908049       -4.37637420
 C           -0.62618060       -0.21257817       -4.99026627
