   70
C70 / DATE: 7/ 1/2024 / Origin: Program Fullerene / C70 from database
 C            1.16505879        0.03721928        4.33057205
 C            2.46104178       -0.33554369        3.81315645
 C            2.42509760       -1.76282572        3.54393797
 C            0.33051966       -1.15492565        4.31392793
 C            1.03145874       -2.16339484        3.55254971
 C           -0.97817489       -0.75331074        3.86373415
 C            0.42047403        1.08385539        3.65770269
 C           -0.96934797        0.69127167        3.70450536
 C            0.90067544        1.63533671        2.47903892
 C            2.93804600        0.31179852        2.61006791
 C            2.15807121        1.26968417        1.97128767
 C            3.19346106       -2.00291997        2.34143414
 C            3.57813125       -0.70294016        1.79765377
 C            2.73389158       -2.97525849        1.46783485
 C            0.46371534       -2.65473284        2.37354175
 C            1.30436529       -3.27486691        1.44779900
 C           -1.60835387       -1.49693578        2.87593368
 C           -0.80612776       -2.20513322        1.96693220
 C           -2.82127976       -0.98335378        2.44033509
 C           -1.86347629        1.22028864        2.77968158
 C           -3.00217879        0.45383191        2.56821109
 C           -0.00149815        2.30904653        1.65659228
 C           -1.36829117        1.99321946        1.71179648
 C            0.49993950        3.02780523        0.57949390
 C            2.48465059        1.61012411        0.66183334
 C            1.81757580        2.68258605        0.07864491
 C            3.61449437       -0.52316231        0.41499927
 C            3.19886384        0.69892438       -0.13022000
 C            3.19012716       -2.91732603        0.09640087
 C            3.68227857       -1.64935967       -0.40762658
 C            0.89228529       -3.35510404        0.06008324
 C            2.08590741       -3.31906235       -0.75647436
 C           -1.14663088       -2.22242220        0.60089966
 C           -0.21695743       -2.63137319       -0.34724404
 C           -3.30247359       -1.32892996        1.12382699
 C           -2.37056409       -1.71548322        0.16679269
 C           -3.94784124        0.86445406        1.56205148
 C           -4.29711901       -0.32571538        0.80240002
 C           -2.18996127        2.26187982        0.59986908
 C           -3.52606599        1.86507138        0.61114684
 C           -0.35537018        3.29434173       -0.55971824
 C           -1.62646037        2.73343993       -0.59305620
 C            1.80866446        2.84534208       -1.36252459
 C            0.47547403        3.27829921       -1.75156721
 C            3.25054825        0.86725189       -1.51399066
 C            2.50162678        1.93971116       -2.15103892
 C            3.23622484       -1.55595248       -1.78461294
 C            2.09801890       -2.45082742       -1.91580501
 C            3.15274345       -0.30326309       -2.36993708
 C           -0.27591967       -2.10331214       -1.63848376
 C            0.89903827       -1.92588391       -2.38347486
 C           -2.52631001       -1.34007678       -1.17805247
 C           -1.46194445       -1.50771323       -2.07318284
 C           -4.44631354        0.07882886       -0.57258042
 C           -4.15442043        1.50490096       -0.63921808
 C           -3.61469090       -0.55675296       -1.57173617
 C           -2.24195075        2.47189565       -1.82819233
 C           -3.41604138        1.72392936       -1.86314930
 C           -3.40833772        0.45814530       -2.58109818
 C           -0.07183190        2.84335161       -2.94882034
 C           -1.48300410        2.50150372       -2.99721431
 C            1.87566563        1.39140835       -3.34436992
 C            2.07327492       -0.04834465       -3.30745462
 C            0.96337271       -0.89443208       -3.31610698
 C            0.65149520        1.88481764       -3.77448860
 C           -1.47533873       -0.83700549       -3.29937331
 C           -2.41470912        0.25262748       -3.52043713
 C           -1.63872620        1.40612927       -3.93817063
 C           -0.21270819       -0.45452385       -3.90557936
 C           -0.31585793        0.93984672       -4.30166957
