   70
C70 / DATE: 7/ 1/2024 / Origin: Program Fullerene / C70 from database
 C            1.23094009        0.15239092        5.38901177
 C            0.51314056       -1.04766028        4.99988667
 C            1.46617050       -1.94441688        4.39229251
 C            2.54738600        0.10049769        4.76878908
 C            2.68079489       -1.18684052        4.12374400
 C            2.70246346        1.29161075        3.96332280
 C            0.52446933        1.29054006        4.82843424
 C            1.49473095        2.08995431        4.11999483
 C           -0.64253730       -0.64994092        4.21707224
 C           -0.62586111        0.79545423        4.09004755
 C           -1.00578666       -1.38973986        3.09593000
 C            1.08871588       -2.59125808        3.15428218
 C           -0.21228968       -2.46924862        2.66957732
 C            2.91923537       -1.24779503        2.68771078
 C            2.16411903       -2.38263681        2.20926727
 C            2.95228646        1.16404075        2.53264976
 C            2.93515359       -0.08549603        1.91436194
 C            1.13764634        2.57036860        2.80504666
 C            2.22724884        2.24560272        1.90875494
 C           -0.94405125        1.34973923        2.84679049
 C           -0.15448359        2.38269443        2.32188082
 C           -1.85260572       -0.77888870        2.17225005
 C           -1.74725548        0.60267844        1.97122091
 C           -2.41359322       -1.57802923        1.19047125
 C           -0.44451255       -2.98676229        1.39242480
 C           -1.70269805       -2.78611825        0.83174366
 C            1.82097802       -2.43490340        0.87287020
 C            0.66321111       -3.12820231        0.54787318
 C            2.57481264       -0.16644073        0.56091919
 C            2.22787631       -1.40690922        0.01910023
 C            1.90475170        2.14851695        0.56715347
 C            2.25608580        1.00129335       -0.14183381
 C           -0.36132998        2.73537895        0.99539709
 C            0.75729208        2.80916551        0.16167885
 C           -2.12952086        1.17299485        0.74731572
 C           -1.57922066        2.41093006        0.41538834
 C           -2.91006268       -0.97422402       -0.02838725
 C           -2.69014493        0.37292995       -0.26094560
 C           -1.90824479       -3.02229943       -0.58552977
 C           -2.69192729       -1.91118438       -1.11299484
 C            0.48478286       -3.44064331       -0.78854882
 C           -0.85740516       -3.52972481       -1.33120641
 C            1.87168960       -1.50406236       -1.32901641
 C            1.28504493       -2.70055189       -1.74429643
 C            1.81950359        0.91432530       -1.46806229
 C            1.67721423       -0.33654995       -2.08281584
 C            0.54269739        2.94031279       -1.19933815
 C            1.19881156        2.03156419       -2.03651811
 C           -1.84416701        2.96749758       -0.82865863
 C           -0.69820390        3.43764245       -1.57678084
 C           -2.76030834        0.84680206       -1.57283472
 C           -2.64292622        2.21763375       -1.77078103
 C           -2.42537888       -1.41293332       -2.38671468
 C           -2.61802027       -0.05222072       -2.64704428
 C           -0.77140157       -3.19392691       -2.73800060
 C            0.59599322       -2.76725969       -3.00914611
 C           -1.64403476       -2.16350141       -3.26608745
 C            1.17443084       -0.41471445       -3.39585953
 C            0.51920438       -1.57283844       -3.81543125
 C           -0.85889965       -1.47231119       -4.26912333
 C            0.93218540        2.03006549       -3.40043014
 C            0.89039797        0.75815040       -4.09635498
 C           -1.06442892        3.45479559       -2.97472294
 C           -2.33380393        2.74891361       -3.08571165
 C           -0.14489552        2.86085966       -3.91826681
 C           -2.34476186        0.41326526       -3.93821615
 C           -1.30027652       -0.23998111       -4.70931682
 C           -0.28889090        0.76826676       -4.95003907
 C           -2.23003112        1.83466382       -4.19723224
 C           -0.93750459        2.05867411       -4.82840782
