   70
C70 / DATE: 7/ 1/2024 / Origin: Program Fullerene / C70 from database
 C            1.53048671        0.15170707        4.97180834
 C            0.73239828       -1.05903362        4.94666906
 C            1.51655301       -2.07692985        4.27702190
 C            2.65170056       -0.03672009        4.06190804
 C            2.67918876       -1.42600223        3.68444090
 C            2.54436897        0.96022669        3.01451328
 C            0.71411800        1.22559117        4.43943782
 C            1.47612013        1.86509281        3.39303405
 C           -0.57979832       -0.72359606        4.41604456
 C           -0.58447635        0.69177458        4.08147888
 C           -1.21364957       -1.61408999        3.56242249
 C            0.88409671       -2.87237102        3.24021071
 C           -0.48313097       -2.75940982        3.02820524
 C            2.69131473       -1.75581396        2.27489445
 C            1.76668717       -2.85654912        2.09021235
 C            2.65344534        0.60072410        1.66201958
 C            2.73313689       -0.75302895        1.29722129
 C            2.22728216        1.54265755        0.71393274
 C            0.78329505        2.45219408        2.35590977
 C            1.48402316        2.63037451        1.17923510
 C           -1.15172831        1.12169023        2.87975946
 C           -0.59340247        2.23368357        2.24433166
 C           -2.04189743       -1.08968557        2.49222016
 C           -1.94132910        0.24914522        2.12674025
 C           -1.00226442       -3.02351187        1.69793971
 C           -2.08667186       -2.09579697        1.45147381
 C            1.24076966       -3.02671466        0.82081027
 C           -0.12419567       -3.28880285        0.65115861
 C            2.42753240       -1.13092747       -0.01420090
 C            1.92169630       -2.41620720       -0.22297435
 C            2.14510858        1.18748222       -0.63848253
 C            2.26032112       -0.15838747       -1.00496513
 C            1.72237218        2.14110017       -1.57515466
 C            0.92209246        3.50895461        0.27678477
 C            1.21250813        3.35415217       -1.12768290
 C           -1.22808044        2.75738159        1.11599209
 C           -0.50737539        3.70609726        0.38908227
 C           -2.31555429        0.62468061        0.83628587
 C           -2.16380890        1.95534027        0.45039248
 C           -2.29956782       -1.69529028        0.14290109
 C           -2.59725141       -0.35736720       -0.12658386
 C           -0.63126565       -3.24388159       -0.65019372
 C           -1.79579316       -2.49327884       -0.88011146
 C            1.59901549       -2.82169761       -1.50319391
 C            0.28981863       -3.41017864       -1.68261194
 C            2.01611528       -0.55859839       -2.32544799
 C            1.80786309       -1.90595155       -2.60183449
 C            1.48250769        1.76590770       -2.89247856
 C            1.64513095        0.38147268       -3.28059142
 C            0.31143646        2.28427529       -3.59226565
 C            0.11064520        3.97563326       -1.84655852
 C           -0.98307832        4.15398794       -0.90147838
 C           -0.41997656        3.31587338       -3.02337701
 C           -2.70554434        2.36471636       -0.76537031
 C           -2.15677781        3.52056145       -1.45240787
 C           -1.84263190        3.12276039       -2.81423969
 C           -2.92923395        0.01337072       -1.43644485
 C           -3.00204919        1.36288601       -1.77113494
 C           -2.40555246        1.80279492       -3.02512869
 C           -2.22277801       -2.22605647       -2.17613390
 C           -2.74930240       -0.90521713       -2.47251472
 C           -0.10601089       -3.18782678       -3.05710286
 C            0.87023200       -2.28414944       -3.64787957
 C           -1.42123658       -2.64931991       -3.30936732
 C            0.58713912        0.06668085       -4.23408198
 C           -0.38839843        1.14391391       -4.16316639
 C           -1.70970994        0.87143713       -3.78886046
 C           -2.13319251       -0.45050394       -3.71079275
 C            0.14678953       -1.24257564       -4.35214684
 C           -1.27059508       -1.51085034       -4.19953255
