   70
C70 / DATE: 7/ 1/2024 / Origin: Program Fullerene / C70 from database
 C            1.07643483       -0.13069083        4.91394615
 C            2.33080122       -0.31499514        4.20933384
 C            2.25324264       -1.58588808        3.50645504
 C            0.24419308       -1.29123144        4.63309291
 C            0.87841051       -2.03006596        3.55893895
 C           -1.10966949       -0.82551227        4.44540651
 C            0.27871736        1.05366208        4.64771324
 C           -1.10228166        0.62637232        4.55277689
 C            0.74766422        2.02357446        3.76762245
 C            2.76179803        0.68717540        3.25058676
 C            2.02840548        1.85424791        3.09117776
 C            2.85455267       -1.40453469        2.20249033
 C            3.23827160       -0.01397713        2.07197713
 C            2.26402780       -1.99930933        1.09645826
 C            0.20665578       -2.22910995        2.35255141
 C            0.95360727       -2.48863511        1.19845127
 C           -1.79428878       -1.16145934        3.21322710
 C           -1.14387860       -1.88515133        2.21970327
 C           -1.93143233        1.14485085        3.47906835
 C           -2.55121237        0.00567456        2.81861618
 C           -0.16912854        2.66270695        2.83126797
 C           -1.48281936        2.20797931        2.69707838
 C            1.91231985        2.43904705        1.76740756
 C            0.59213281        3.02380389        1.64152837
 C            3.11080227        0.56435178        0.81183796
 C            2.45271337        1.79252272        0.66548310
 C            2.72441006       -1.59843443       -0.15399797
 C            3.18293065       -0.28276457       -0.29683238
 C            2.27901084       -2.31166156       -1.25861606
 C            0.28322277       -2.86915594        0.03240258
 C            1.02900232       -3.03404109       -1.13379105
 C           -1.70349598       -1.88511147        0.94641324
 C           -1.09108125       -2.63536246       -0.05233445
 C           -2.91944313        0.13779816        1.48579112
 C           -2.63856748       -0.90084954        0.59615027
 C           -2.15437934        2.45615824        1.50452655
 C           -3.02937367        1.42183995        0.97755001
 C           -0.03855874        3.01550875        0.39950215
 C           -1.42536037        3.01273388        0.37552315
 C            1.99374881        2.15705693       -0.59684165
 C            0.66869334        2.60092584       -0.73732469
 C            3.23281645        0.30776972       -1.55568395
 C            2.67212818        1.63651435       -1.68942504
 C            2.32877802       -1.71993459       -2.58345525
 C            2.86105386       -0.45112714       -2.73648453
 C            0.37333926       -3.01475193       -2.42844826
 C            1.10266279       -2.08471726       -3.28149730
 C           -1.76191068       -2.80287940       -1.25986833
 C           -1.00946212       -3.04399666       -2.48000285
 C           -3.03628360       -0.78320916       -0.73934800
 C           -2.83872385       -1.88273717       -1.57576429
 C           -3.10394685        1.60196811       -0.45611545
 C           -2.11653605        2.60342342       -0.82915725
 C           -3.25495424        0.49459922       -1.28190339
 C           -0.00264165        2.46628017       -1.96664094
 C           -1.40054159        2.41325182       -2.00396191
 C            2.09750263        1.75380656       -3.00879007
 C            2.24193931        0.46645834       -3.67288477
 C            0.71357207        2.15783937       -3.12168635
 C            0.40737460       -1.13932974       -4.04144748
 C            0.95520748        0.12674867       -4.25188691
 C            0.10759138        1.30304338       -4.12632395
 C           -1.67947760       -2.34726354       -3.56103394
 C           -2.87603891       -1.72570043       -3.01728707
 C           -0.94751409       -1.33439364       -4.30235302
 C           -3.04291546        0.71942589       -2.63937669
 C           -2.03556265        1.69589754       -3.01918749
 C           -1.26742721        1.13911529       -4.12017764
 C           -2.96737237       -0.39168870       -3.56189809
 C           -1.81345560       -0.17446187       -4.42022773
