   70
C70 / DATE: 7/ 1/2024 / Origin: Program Fullerene / C70 from database
 C            1.45722709       -0.03539828        4.90166273
 C            0.69782398       -1.26707858        4.80158273
 C            1.42054197       -2.18058214        3.92811909
 C            2.62803215       -0.17478100        4.05957860
 C            2.54442843       -1.45198138        3.36895897
 C            2.72250569        1.02487793        3.25251749
 C            0.64543051        1.03061619        4.33711568
 C            1.41263262        1.65907539        3.27903017
 C           -0.66646442       -0.91161827        4.45804996
 C           -0.65006102        0.47328677        4.00826213
 C           -1.41949697       -1.83188614        3.74331890
 C            0.69007647       -3.02653805        3.10743275
 C           -0.75768135       -3.02110888        3.22435461
 C            1.01257475       -3.09437927        1.68957756
 C            2.78208726       -1.47211376        1.99431274
 C            1.95879901       -2.22933327        1.14849075
 C            3.35375266        0.91412091        2.02785511
 C            3.51407749       -0.41694394        1.45740261
 C            2.89261866        1.75503251        0.94352658
 C            0.78330697        1.95339101        2.06814110
 C            1.57019933        2.18286892        0.93730321
 C           -1.22737512        0.78994026        2.78267805
 C           -0.57680842        1.67157917        1.90753333
 C           -2.31463361       -1.35115725        2.70569214
 C           -2.25833444       -0.01600150        2.29977135
 C           -1.30818008       -3.30446987        1.91151583
 C           -0.22195464       -3.32577347        0.95720315
 C           -2.38484713       -2.37176985        1.67680588
 C           -0.40839459       -2.68459009       -0.26335913
 C            1.88984752       -1.92572308       -0.21684931
 C            0.69268410       -2.14953639       -0.91680291
 C            3.57926193       -0.25606949        0.01985920
 C            3.42793335        1.16318342       -0.26067234
 C            2.90230006       -1.15484352       -0.79451708
 C            2.86504601        1.50805396       -1.47670579
 C            0.95641334        2.40856670       -0.29440628
 C            1.71562818        2.30766599       -1.46665582
 C           -1.20561730        2.01293049        0.71157541
 C           -0.43813004        2.46095151       -0.36922476
 C           -2.85281996        0.31907176        1.08397914
 C           -2.48828774        1.52468825        0.48366587
 C           -2.60684612       -1.92832765        0.38613005
 C           -1.68356197       -2.23665937       -0.62066087
 C           -3.28413245       -0.73024803        0.26903312
 C           -1.87259161       -1.64070035       -1.87726046
 C            0.52911653       -1.64981953       -2.20436925
 C           -0.75065587       -1.26997353       -2.64435873
 C            2.81542305       -0.82423779       -2.14277760
 C            3.01126667        0.57047602       -2.49169925
 C            1.66417957       -1.26628494       -2.90164669
 C            2.36161080        0.79717367       -3.76162473
 C            1.53924033       -0.37487330       -4.03285320
 C            1.13931337        2.67806359       -2.67831073
 C            1.52010816        1.96698054       -3.88823900
 C           -1.06198740        2.79269720       -1.57738833
 C           -0.29473261        2.90623140       -2.74090825
 C           -3.17106962        1.92942269       -0.65510484
 C           -2.44147412        2.62733045       -1.70010831
 C           -3.79693317       -0.43599076       -0.97785264
 C           -3.10714614       -1.02639681       -2.11002132
 C           -4.02874913        0.95365000       -1.29658396
 C           -2.97478210        2.18481731       -2.97707518
 C           -3.26545577       -0.12335891       -3.22713014
 C           -3.89379340        1.09188133       -2.73133906
 C           -0.90078611       -0.43832402       -3.77608424
 C            0.22420828        0.09202901       -4.40065252
 C            0.30170169        1.53556531       -4.53844353
 C           -0.78437498        2.31752936       -3.98657194
 C           -2.08765823        0.26822179       -3.95936398
 C           -2.03558032        1.72690164       -3.97441386
