   70
C70 / DATE: 7/ 1/2024 / Origin: Program Fullerene / C70 from database
 C            1.76557257        0.03840486        4.67207481
 C            0.91373353       -1.13782941        4.64819288
 C            1.42351988       -2.02931619        3.62476212
 C            2.67334241       -0.04901201        3.54043577
 C            2.53429354       -1.36050364        2.95969252
 C            2.43974220        1.08728513        2.68397385
 C            0.91894446        1.19822702        4.46845972
 C            1.38264946        1.88901621        3.27774481
 C           -0.46377720       -0.69652514        4.56088035
 C           -0.46294319        0.76024351        4.51625538
 C           -1.34032168       -1.41313568        3.75400361
 C            0.53391166       -2.76456879        2.84281398
 C           -0.83890796       -2.50576637        2.92853609
 C            1.03487106       -3.32633020        1.67290283
 C            2.64848412       -1.50754963        1.58191303
 C            2.21123884       -2.71738480        1.07252007
 C            2.42126005        0.90007221        1.30754986
 C            2.61218160       -0.37209504        0.75087538
 C            1.80523442        1.87017303        0.53858301
 C            0.44300528        2.47161978        2.43112204
 C            0.76140132        2.62313613        1.08435477
 C           -1.38139379        1.42313470        3.71360852
 C           -0.90220840        2.44106470        2.78832777
 C           -2.36267227       -0.71339671        2.99131523
 C           -2.42119626        0.67135055        3.02767484
 C           -1.66519283       -2.56273719        1.72733010
 C           -2.52354688       -1.39470540        1.71585140
 C            0.12727349       -3.63611946        0.58506178
 C           -1.10491710       -2.99629962        0.53601048
 C            2.11709431       -2.89172484       -0.35572297
 C            0.93587519       -3.70175544       -0.61521592
 C            2.46896383       -0.52820722       -0.64384136
 C            2.39240068       -1.81681728       -1.19220640
 C            1.97113287        1.83568853       -0.83449979
 C            2.20213795        0.59760116       -1.44958566
 C            1.45265104        2.89993852       -1.55777489
 C           -0.16875738        3.21536961        0.22921829
 C            0.24803885        3.53679628       -1.06014565
 C           -1.90600737        2.57611761        1.74818070
 C           -2.75069561        1.39372733        1.81223695
 C           -1.53109339        3.03820120        0.49088202
 C           -2.64896779       -0.65031000        0.54429796
 C           -3.00395702        0.69950274        0.63155598
 C           -1.52788010       -2.42738640       -0.66744702
 C           -2.15865960       -1.17623559       -0.66076907
 C            0.30867874       -3.55526022       -1.83892261
 C           -1.00720997       -2.93080024       -1.85686558
 C            2.09818916       -1.97951301       -2.54050867
 C            1.07943442       -2.94995187       -2.90503573
 C            2.05013713        0.45471669       -2.84052263
 C            1.91126136       -0.81888157       -3.38312249
 C            1.35012593        2.80596095       -2.99225333
 C            1.60975754        1.52890409       -3.61504033
 C           -0.71470877        3.53461320       -2.14741517
 C            0.00729724        3.22626687       -3.36833200
 C           -2.38516594        2.72829785       -0.56434365
 C           -3.08417100        1.45349415       -0.53048935
 C           -1.96445351        2.97192212       -1.93027276
 C           -2.31712796       -0.45794327       -1.85435891
 C           -2.87862068        0.81270636       -1.81172558
 C           -2.40666230        1.83405649       -2.72983252
 C           -1.10928763       -2.14754226       -3.07431934
 C            0.14465567       -2.29233255       -3.79088724
 C            0.78853755       -1.09183126       -4.27699183
 C           -1.70223147       -0.89117709       -3.03370017
 C            0.54162609        1.29618194       -4.57008516
 C           -0.53165946        2.22530236       -4.26781112
 C           -1.68404112        1.44481569       -3.84884528
 C           -0.02888388       -0.03261088       -4.63104463
 C           -1.35133589        0.03964668       -4.01926405
