   70
C70 / DATE: 7/ 1/2024 / Origin: Program Fullerene / C70 from database
 C            1.33910586       -0.15925676        4.28233272
 C            2.57272858       -0.40684281        3.57061751
 C            2.46113719       -1.70176966        2.92039350
 C            0.47235925       -1.31331883        4.08898987
 C            1.10316171       -2.17694178        3.11604078
 C           -0.86009620       -0.81437294        3.81083974
 C            0.56352917        1.01615903        3.93858319
 C           -0.82799320        0.61870560        4.04205992
 C            0.96134948        1.82335739        2.86917270
 C            2.99262087        0.54385009        2.56332786
 C            2.26107431        1.71152584        2.34890520
 C            2.95517948       -1.56188887        1.55674971
 C            3.44857107       -0.20970253        1.40583287
 C            2.21679121       -2.11628186        0.52312998
 C            0.38533908       -2.57038918        1.99614161
 C            1.09559504       -2.87648082        0.84295627
 C           -1.55980583       -1.29984928        2.70695126
 C           -0.98128821       -2.28584580        1.89264824
 C           -2.65931573       -0.57217222        2.24545274
 C           -1.78228643        1.40212299        3.42066636
 C           -2.83711974        0.74444199        2.67051041
 C           -0.01090144        2.56321554        2.18258701
 C           -1.33475019        2.52221401        2.61247236
 C            0.28453368        3.11613549        0.93631814
 C            2.61358219        2.46660141        1.23531548
 C            1.61677017        3.30644049        0.60164654
 C            3.38455839        0.40974818        0.16242615
 C            3.34497333        1.80054026        0.16942115
 C            2.32972660       -1.58120812       -0.76050460
 C            2.85685117       -0.28950588       -0.93765079
 C            1.70295023       -2.24738039       -1.81834397
 C            0.43863842       -3.54989464       -0.16741601
 C            0.84902552       -3.31378651       -1.53814106
 C           -1.68483876       -2.78328861        0.78931331
 C           -1.01231327       -3.58388969       -0.13479516
 C           -3.35936356       -1.01837850        1.12979708
 C           -2.89198398       -2.19341892        0.41902743
 C           -3.81859828       -0.05588347        0.13461081
 C           -3.35487107        1.72352145        1.73230541
 C           -2.38758823        2.80609654        1.65646789
 C           -3.65929035        1.29696647        0.37974672
 C           -0.68730793        3.12746739       -0.07315618
 C           -2.02650652        2.98272172        0.26443381
 C           -2.83966585        2.07980230       -0.53052846
 C           -0.31353786        2.87930328       -1.39378353
 C            1.98550486        3.44017678       -0.79637718
 C            3.07742840        2.51294033       -1.05630849
 C            0.97248153        3.20665514       -1.80648559
 C            2.73418642        0.35674205       -2.17825117
 C            2.72898464        1.75005827       -2.23282005
 C            1.60051816        2.42451842       -2.85261464
 C            1.65157637       -1.65788878       -3.07735068
 C            2.18679008       -0.32407562       -3.26094729
 C            0.43574188       -1.76941546       -3.87949170
 C           -0.31489716       -3.52555443       -2.37763641
 C           -1.47685028       -3.63119216       -1.51043067
 C           -0.60808362       -2.54692637       -3.40353775
 C           -3.20053492       -1.99159784       -0.99159019
 C           -3.45250342       -0.57635172       -1.16725618
 C           -2.45432439       -2.65548179       -1.95043457
 C           -1.85546844       -1.88863964       -3.03325202
 C           -2.25757469        1.47170953       -1.64205959
 C           -1.10788489        2.04386613       -2.18616682
 C           -2.61478745        0.16426569       -1.99893107
 C           -1.92583175       -0.49062908       -3.02577551
 C            0.79661482        1.69557713       -3.71171744
 C            1.27694976        0.39550839       -4.13826375
 C            0.12007690       -0.44553101       -4.37108626
 C           -0.61643715        1.55002715       -3.39020509
 C           -1.04240505        0.23204952       -3.82488187
