   70
C70 / DATE: 7/ 1/2024 / Origin: Program Fullerene / C70 from database
 C            1.60145661       -0.07974330        4.63338442
 C            0.77969302       -1.26077579        4.45358343
 C            1.34617849       -2.04755780        3.37146028
 C            2.63269818       -0.10045240        3.61125215
 C            2.46042217       -1.29561392        2.81993527
 C            2.59744455        1.16868654        2.92533038
 C            0.76078045        1.07875416        4.38438125
 C            1.43058314        1.90023453        3.40133038
 C           -0.59700516       -0.82475618        4.33174002
 C           -0.57206911        0.60764432        4.07616573
 C           -1.45296784       -1.61017913        3.58021547
 C            0.47646308       -2.68973240        2.49132892
 C           -0.88976690       -2.69316299        2.78685890
 C            0.89084213       -2.91242661        1.17450974
 C            2.56581500       -1.20519073        1.43976502
 C            2.00168035       -2.22119960        0.67950861
 C            2.87341889        1.20923523        1.56174856
 C            2.89222780        0.01497873        0.82353004
 C            2.53633366        2.38511342        0.90958644
 C            0.66856475        2.58071054        2.45785920
 C            1.36588031        3.10781446        1.37585827
 C           -1.20875422        1.11147753        2.94234853
 C           -0.68100516        2.23498118        2.29228030
 C           -2.43308194       -0.95689663        2.73628130
 C           -2.21905721        0.35960349        2.33102063
 C           -1.85653567       -2.99750427        1.74254472
 C           -2.85917891       -1.94046683        1.75858870
 C            0.02661876       -3.55919574        0.29243420
 C           -1.40307271       -3.50133739        0.53137800
 C            0.23478940       -3.44928529       -1.14036055
 C            2.34264165       -2.30483362       -0.66189412
 C            1.42052290       -2.91176638       -1.60696792
 C            2.98436766        0.06159361       -0.57799317
 C            2.92894249       -1.13621854       -1.29324935
 C            2.54087157        2.42767516       -0.53377623
 C            2.84968757        1.28252481       -1.25529143
 C            0.64999555        3.60449005        0.21573432
 C            1.41538361        3.24389029       -0.96365703
 C           -1.41526662        2.82130732        1.26491498
 C           -0.72691533        3.50861687        0.18367542
 C           -2.83790928        0.82733569        1.16846084
 C           -2.53123964        2.09369385        0.68889808
 C           -3.41123525       -1.49456204        0.56816363
 C           -3.49947457       -0.06355846        0.32674625
 C           -2.04189067       -3.09023248       -0.71002170
 C           -1.01742529       -3.01665180       -1.73871476
 C           -3.04588725       -2.13471927       -0.68599925
 C           -1.01509114       -1.95897931       -2.65003183
 C            1.39616540       -2.07408289       -2.79038059
 C            2.50380550       -1.13844940       -2.68116909
 C            0.17913447       -1.63497433       -3.31062251
 C            2.56123733        1.30165403       -2.61995786
 C            2.43145858        0.06196810       -3.36505518
 C            0.77243642        2.90945301       -2.15282287
 C            1.53200883        2.21440158       -3.09410997
 C           -1.38165287        3.16107385       -1.06334246
 C           -2.54049506        2.33978534       -0.74725260
 C           -0.63271698        2.86731522       -2.20091400
 C           -3.45536518        0.14381728       -1.11143971
 C           -3.08451261       -1.12253198       -1.72459332
 C           -2.13532408       -1.11721496       -2.74053096
 C           -2.92260215        1.32517399       -1.62581676
 C           -1.28875037        2.20632181       -3.23765013
 C           -2.07927563        0.02432967       -3.52901299
 C           -2.38338600        1.30706124       -2.91267981
 C            0.20072227       -0.62293385       -4.26537760
 C            1.36693358        0.24106618       -4.33980420
 C            0.90358135        1.61615201       -4.25178769
 C           -0.96507561        0.21522707       -4.43027643
 C           -0.53780106        1.60202414       -4.32024828
