   70
C70 / DATE: 7/ 1/2024 / Origin: Program Fullerene / C70 from database
 C            1.66373558       -0.17319297        5.00656168
 C            0.82766494       -1.34921764        5.15675439
 C            1.29968044       -2.34870201        4.21728486
 C            2.62287523       -0.44027481        3.94800918
 C            2.36071596       -1.75845734        3.41531507
 C            2.57728928        0.67404968        3.03280176
 C            0.81883816        0.91934857        4.55520594
 C            1.46805881        1.52967088        3.41599611
 C           -0.52096513       -0.99028175        4.75544180
 C           -0.52183386        0.41073392        4.36828662
 C            0.13917812       -2.88034487        3.52794787
 C           -0.97000967       -1.97009540        3.77800644
 C            0.32193139       -3.34647423        2.23781122
 C            2.31722315       -1.92973001        2.03129547
 C            1.53812098       -2.96842019        1.53263023
 C            2.74560386        0.43645145        1.67726355
 C            2.66254581       -0.86805904        1.17898517
 C            2.39419640        1.46649040        0.82185745
 C            0.68034850        2.04029899        2.38871965
 C            1.30389459        2.26878090        1.16973312
 C           -1.20116360        0.76130357        3.20762718
 C           -0.69105525        1.76940579        2.37724025
 C           -1.73356657       -1.51953477        2.70118568
 C           -2.07892659       -0.16857226        2.66120441
 C           -0.76424510       -3.20830395        1.28699963
 C           -1.75570527       -2.26002158        1.51314494
 C            1.24421822       -3.02116406        0.11672036
 C           -0.17326959       -3.29254982       -0.03204255
 C            2.56058073       -1.03058448       -0.21179339
 C            1.82047072       -2.09683371       -0.73961102
 C            2.74067036        1.35094087       -0.51460771
 C            2.85108399        0.05921387       -1.04468915
 C            2.43797936        2.43217347       -1.33539406
 C            0.58174164        2.89789833        0.16340866
 C            1.25432588        3.20552178       -1.01763052
 C           -1.44129592        2.14621818        1.25465253
 C           -0.81099726        2.78150946        0.17444738
 C           -2.94891059        0.26519762        1.67846036
 C           -2.69206654        1.55484150        1.06805970
 C           -2.47377213       -1.76956598        0.41931856
 C           -3.27928864       -0.64931000        0.60636416
 C           -0.83618131       -2.70278496       -1.09705515
 C           -2.09328513       -2.13269840       -0.87870053
 C            1.26979315       -1.97283573       -2.01403473
 C           -0.08082038       -2.29177866       -2.19632620
 C            2.81004325       -0.14109083       -2.42562083
 C            1.93111847       -1.17263980       -2.93814010
 C            2.52489103        2.30602729       -2.77300288
 C            2.73711687        0.99124466       -3.33055106
 C            0.51713642        3.41410748       -2.25147164
 C            1.29617696        2.84387284       -3.33607343
 C           -1.54118158        3.05782367       -0.98330116
 C           -0.85481793        3.23545897       -2.25046167
 C           -3.30222877        1.53245972       -0.25077143
 C           -3.68247050        0.15515266       -0.53452042
 C           -2.76304938        2.32213019       -1.25380712
 C           -2.79478922       -1.61281001       -1.96525540
 C           -3.51309114       -0.36001248       -1.81074424
 C           -0.74223908       -1.89742714       -3.35381505
 C           -2.15837561       -1.59376800       -3.27072396
 C            1.21426654       -0.63062182       -4.08281114
 C            1.66619180        0.73435301       -4.27931611
 C            0.69782888        1.81195017       -4.16360170
 C           -0.13730308       -0.90447838       -4.22032233
 C           -1.45825741        2.32207662       -3.21217327
 C           -2.68647803        1.81313253       -2.61560711
 C           -3.10990322        0.52012299       -2.89631892
 C           -2.36314314       -0.27475401       -3.85089209
 C           -0.64811371        1.49262546       -3.99447271
 C           -1.07473520        0.20480361       -4.31908059
