   70
C70 / DATE: 7/ 1/2024 / Origin: Program Fullerene / C70 from database
 C            1.63281452        0.02080258        4.63730930
 C            0.80669048       -1.17183217        4.65657124
 C            1.35826434       -2.11860937        3.70428734
 C            2.63105333       -0.14912634        3.59701933
 C            2.47466944       -1.46836926        3.02881223
 C            2.53791870        0.98232092        2.70660056
 C            0.78590269        1.13591418        4.25236537
 C            1.40328599        1.79114979        3.11358431
 C           -0.57339876       -0.76135060        4.49390286
 C           -0.56741170        0.63940024        4.09851072
 C           -1.43523218       -1.63065698        3.84632278
 C            0.48401597       -2.90496123        2.95504454
 C           -0.88865138       -2.82163573        3.20903517
 C            0.93716331       -3.41481446        1.73767960
 C            2.60950633       -1.63263007        1.65336565
 C            2.08749245       -2.79116965        1.10077234
 C            2.71630666        0.78273713        1.34773207
 C            2.81499133       -0.51730196        0.82677935
 C            2.29458810        1.79928004        0.50492493
 C            0.58072835        2.30099034        2.11059035
 C            1.13383057        2.50102805        0.84005175
 C           -1.28359099        1.04217562        2.97448510
 C           -0.79902485        2.11278370        2.22021975
 C           -2.42398279       -1.08477028        2.93583312
 C           -2.24057692        0.19058735        2.41222597
 C           -1.84246388       -3.22932047        2.19081353
 C           -2.80815029       -2.15254685        2.03545088
 C           -0.00310232       -3.79058368        0.68928736
 C           -1.35961113       -3.58638361        0.87238431
 C            1.91219343       -2.88260375       -0.33204289
 C            0.59276933       -3.43872004       -0.58487242
 C            2.85410448       -0.67918381       -0.56852598
 C            2.36140694       -1.85495303       -1.15204514
 C            2.72037270        1.75359940       -0.80757349
 C            3.05480027        0.45515483       -1.36121750
 C            2.00689501        2.50766018       -1.81540364
 C            0.34425113        3.07509203       -0.16291411
 C            0.79953227        3.11783042       -1.48566524
 C           -1.61733935        2.64151688        1.23461205
 C           -1.00202596        3.30772593        0.10255680
 C           -2.76454746        0.49156560        1.15288360
 C           -2.68439469        1.80655293        0.71172889
 C           -2.92026328       -1.85287748        0.62105646
 C           -2.09245406       -2.79736556       -0.10573912
 C           -2.91911205       -0.52705397        0.20668875
 C           -0.18522947       -2.86368946       -1.58498954
 C           -1.45069642       -2.36085850       -1.26366750
 C            1.84649117       -1.82328364       -2.44685314
 C            0.49582105       -2.31823478       -2.66628697
 C            2.65635917        0.46026766       -2.75980973
 C            2.13675843        1.78359464       -3.07084420
 C            2.03934798       -0.65941552       -3.29058310
 C            1.15270496        1.93118489       -4.04026890
 C           -0.07746854        3.48018369       -2.51070006
 C            0.15689914        2.97123770       -3.85348341
 C           -1.96118382        3.24621276       -0.98098652
 C           -2.80534742        2.09273613       -0.70799022
 C           -1.51277474        3.44392572       -2.27494161
 C           -2.63869104       -0.25818193       -1.13155048
 C           -1.89825430       -1.18501154       -1.87547243
 C           -2.82626736        1.03534490       -1.61391337
 C           -0.17892605       -1.37382058       -3.53348465
 C            0.84238608       -0.50711132       -4.10349579
 C            0.47138231        0.75089104       -4.55898884
 C           -1.39245156       -0.82980966       -3.12546717
 C           -1.10655213        2.47435339       -4.36898740
 C           -2.09561223        2.62387546       -3.31864942
 C           -2.58343151        1.30356090       -2.95677014
 C           -0.94584832        1.05551723       -4.62309793
 C           -1.84962946        0.32948305       -3.74420632
