   70
C70 / DATE: 7/ 1/2024 / Origin: Program Fullerene / C70 from database
 C            1.11214757        0.00796443        4.34147229
 C            2.43209220       -0.30568553        3.84536984
 C            2.45147790       -1.72322567        3.53666014
 C            0.29527320       -1.19043695        4.20881740
 C            1.07329264       -2.17385397        3.49385742
 C           -0.97248572       -0.78872175        3.65316808
 C            0.37842232        1.09591046        3.72515609
 C           -0.99602075        0.66414451        3.61131884
 C            0.92854012        1.80012203        2.66216641
 C            2.91486422        0.39524613        2.67436173
 C            2.16199939        1.41728614        2.11190620
 C            3.25834288       -1.90560525        2.34807997
 C            3.51676379       -0.58259595        1.78506293
 C            2.89723017       -2.92523262        1.48501244
 C            0.58659737       -2.70928989        2.30047870
 C            1.50097978       -3.35508521        1.47393828
 C           -1.49417927       -1.48068754        2.56767844
 C           -0.63340090       -2.25302844        1.76759892
 C           -2.64259377       -0.93916009        2.01075595
 C           -1.81122589        1.26746544        2.66037534
 C           -2.85019787        0.49459491        2.14643441
 C            0.07476766        2.60065445        1.90256274
 C           -1.30084958        2.32001577        1.88837250
 C            0.63945291        3.39364090        0.90510601
 C            2.45553621        1.78807296        0.80706585
 C            1.90432690        2.97028548        0.33621103
 C            3.42796244       -0.38836187        0.40070484
 C            2.88252750        0.80426735       -0.09502596
 C            3.32763789       -2.82047736        0.10934699
 C            3.53171127       -1.49457436       -0.44440745
 C            1.14165266       -3.66175204        0.10770710
 C            2.33400065       -3.48811596       -0.70485957
 C           -0.94273191       -2.48078161        0.40934056
 C           -0.07279592       -3.22082229       -0.40188424
 C           -3.03528568       -1.30879707        0.67233615
 C           -2.12261452       -1.96020161       -0.14530597
 C           -3.59231402        0.95012052        0.98641479
 C           -3.81911475       -0.20837030        0.13581761
 C           -2.12147851        2.90829425        0.92519584
 C           -3.27057844        2.17506913        0.41868210
 C           -0.18229613        3.92016602       -0.17073581
 C           -1.53539615        3.63085116       -0.19004999
 C            1.85844673        3.20605952       -1.08911497
 C            0.57365611        3.80721491       -1.40257936
 C            2.50200667        0.87749187       -1.44197916
 C            2.05730020        2.07870566       -1.97403405
 C            2.88159496       -1.46473516       -1.74470334
 C            2.21367971       -2.74336742       -1.94150008
 C            2.25190321       -0.29240981       -2.15048765
 C           -0.18720005       -3.12635031       -1.78586595
 C            0.98152366       -2.74514569       -2.56749937
 C           -2.29678190       -1.90887599       -1.53334572
 C           -1.32794116       -2.45154588       -2.36691253
 C           -3.88952197       -0.04957915       -1.23862479
 C           -3.21211564       -1.01294670       -2.08701859
 C           -3.30278508        2.33183091       -1.02710402
 C           -2.15017051        3.13502231       -1.41543998
 C           -3.70181069        1.26973107       -1.82750019
 C           -0.00083961        3.07263242       -2.51355176
 C            0.95604950        2.05268262       -2.91862102
 C           -1.35605712        2.75687251       -2.50492230
 C            1.17064615       -0.34735074       -3.03989362
 C            0.59651131       -1.58107235       -3.33724907
 C           -0.83862068       -1.66815281       -3.49403751
 C            0.48085983        0.82535761       -3.37474904
 C           -2.86298406       -0.33287416       -3.32128261
 C           -3.06024236        1.09108285       -3.11488913
 C           -1.79516105        1.75652777       -3.36699911
 C           -1.53154235       -0.52879686       -3.86374984
 C           -0.84244365        0.75268227       -3.81861018
