   70
C70 / DATE: 7/ 1/2024 / Origin: Program Fullerene / C70 from database
 C            1.23963219        0.17148038        5.67296789
 C            0.46532541       -1.02905651        5.42201820
 C            1.33035908       -1.98344466        4.75454631
 C            2.51639647        0.02436955        4.99069043
 C            2.55260035       -1.28941708        4.38202571
 C            2.69007921        1.18097436        4.14185826
 C            0.53684243        1.28701087        5.05896353
 C            1.49510474        2.00882892        4.26090288
 C           -0.76655520       -0.63466522        4.76156466
 C           -0.65120225        0.77046437        4.40387798
 C           -1.33077883       -1.49849430        3.83675493
 C            0.82798565       -2.65531989        3.56936134
 C           -0.52751501       -2.58527626        3.28036820
 C            2.70296898       -1.40749365        2.93785546
 C            1.77698159       -2.42921284        2.49043275
 C            2.93705660        0.99439426        2.72028080
 C            2.88502176       -0.27621033        2.13923159
 C            1.11446721        2.39320038        2.91784659
 C            2.23435625        2.07295150        2.06188910
 C           -0.96535656        1.17003599        3.09736616
 C           -0.16396238        2.11086075        2.43211700
 C           -2.08518046       -0.93066033        2.73638849
 C           -1.86423281        0.39317008        2.35813432
 C           -0.94567282       -2.76001409        1.90192025
 C           -2.12350720       -1.94299127        1.70295838
 C            1.31351532       -2.36592823        1.18053610
 C            0.00914147       -2.77416804        0.89079503
 C            2.58186626       -0.36316429        0.77382583
 C            1.96431240       -1.51627426        0.28302650
 C            1.95965533        1.94039648        0.71765801
 C            2.44066084        0.82033858        0.05076125
 C           -0.36417620        2.31290605        1.06361154
 C            0.76445551        2.47461513        0.26005722
 C           -2.18991648        0.76095297        1.05059457
 C           -1.53417324        1.84856197        0.46814080
 C           -2.40211201       -1.53253006        0.41244896
 C           -2.76510749       -0.20661573        0.22233944
 C           -0.43904601       -2.62487543       -0.41697594
 C           -1.74697192       -2.17741466       -0.63201005
 C            1.59050994       -1.56402003       -1.06199620
 C            0.50973871       -2.37477776       -1.39827276
 C            2.16909411        0.75295700       -1.31178751
 C            1.91427577       -0.48783275       -1.89577733
 C            0.60181279        2.52465844       -1.11434645
 C            1.56412963        1.86758893       -1.87711069
 C           -1.74764433        2.12984546       -0.88680098
 C           -0.68522796        2.65254651       -1.62962817
 C           -3.17885683        0.16163333       -1.04648383
 C           -2.77299420        1.45728629       -1.54719682
 C           -2.14519570       -1.88239515       -1.93589867
 C           -2.99617042       -0.79075313       -2.13165650
 C            0.09648254       -2.43281130       -2.71779681
 C           -1.32623910       -2.31162183       -2.97743447
 C            1.52677907       -0.52184155       -3.24444677
 C            0.77399876       -1.60796247       -3.69537509
 C            1.47136049        1.92664534       -3.25465851
 C            1.54588877        0.67188899       -3.97778000
 C           -0.81798865        2.83995784       -3.00572392
 C            0.37534756        2.68784685       -3.81781230
 C           -2.77726338        1.38116438       -2.99951030
 C           -2.94080694       -0.02287566       -3.36687726
 C           -1.90793846        2.19081271       -3.71468402
 C           -1.48176294       -1.74659866       -4.30634923
 C           -0.14796637       -1.46529216       -4.81316466
 C           -2.27676899       -0.54598231       -4.47182577
 C            0.74340463        0.82137953       -5.18437268
 C            0.00472251        2.06922684       -5.07603991
 C           -1.40710552        1.73903376       -5.00326698
 C           -0.20621850       -0.21154749       -5.53245302
 C           -1.54471515        0.33955462       -5.36060286
