   70
C70 / DATE: 7/ 1/2024 / Origin: Program Fullerene / C70 from database
 C            1.32673186       -0.07909396        4.67808699
 C            2.61581798       -0.37058753        4.07897820
 C            2.56954426       -1.72727795        3.56031812
 C            0.50067040       -1.26785431        4.55347322
 C            1.21391781       -2.22349794        3.72433376
 C           -0.82576315       -0.85049399        4.14434262
 C            0.55794978        1.04936398        4.18181814
 C           -0.77553071        0.57405149        3.85209385
 C            1.16533013        1.97916287        3.35081981
 C            3.10879125        0.49236559        3.02119799
 C            2.48635922        1.71162445        2.79055639
 C            3.15277682       -1.72047589        2.23250907
 C            3.45874937       -0.34223462        1.88211321
 C            2.60338121       -2.54604241        1.26795384
 C            0.56100945       -2.79679557        2.63281762
 C            1.29860751       -3.15184504        1.50428303
 C           -1.53758365       -1.67422808        3.28743057
 C           -0.82798553       -2.70638735        2.54163423
 C           -2.49578742       -1.07174267        2.38142461
 C           -1.43162677        1.05803129        2.71789996
 C           -2.47712491        0.30495215        2.17532450
 C            0.37275907        2.62095847        2.31765403
 C           -0.87077597        2.10712700        1.97458995
 C            2.50566263        2.26009908        1.44794695
 C            1.27596204        3.01072706        1.25580478
 C            3.20176395        0.12197870        0.58907927
 C            2.98576262        1.49070451        0.39173887
 C            2.63777729       -2.12143788       -0.11661290
 C            2.89757983       -0.79134059       -0.43216620
 C            0.63616777       -3.28380501        0.21392491
 C            1.55395013       -2.79513167       -0.80009393
 C           -1.48459364       -2.84854018        1.24764781
 C           -2.62258058       -1.94923602        1.23092317
 C           -0.72166159       -2.99542185        0.09483780
 C           -3.02832302       -1.39924580        0.02355769
 C           -3.17969419        0.80397262        1.08561415
 C           -3.58794466       -0.12341798        0.04336471
 C           -1.41199803        2.44642677        0.73510222
 C           -2.68916039        1.99534266        0.42459059
 C            0.78295741        3.13826566       -0.03729813
 C           -0.58789604        2.97954475       -0.26704314
 C            2.75261990        1.96415167       -0.89293350
 C            1.67590435        2.92236055       -1.08460240
 C            2.52267535       -0.32761746       -1.69481080
 C            2.67918571        1.02139319       -1.98769704
 C            1.02730541       -2.20444312       -1.93453846
 C            1.69496337       -1.11877987       -2.50025451
 C           -1.21206627       -2.50719371       -1.12120925
 C           -2.46119441       -1.87095721       -1.15954254
 C           -0.32736103       -2.37315928       -2.19616043
 C           -2.94406842       -1.37095703       -2.36625991
 C           -3.70940078        0.62999158       -1.19346588
 C           -3.13190538        1.94607447       -0.95843610
 C           -3.48036216       -0.02080002       -2.39832265
 C           -1.07546548        3.12719882       -1.56640009
 C           -2.35452572        2.54620185       -1.93685853
 C            1.18202500        2.76991976       -2.44205560
 C            1.87444772        1.63341980       -3.03297657
 C           -0.16961930        2.96307992       -2.69155099
 C            1.24106204       -0.62174637       -3.72044135
 C            1.21028033        0.81412252       -3.93364071
 C           -0.80539151       -2.02472981       -3.45264842
 C           -2.17213335       -1.56664366       -3.57700901
 C            0.02262724       -1.17530180       -4.28993933
 C           -2.82197639        0.68623723       -3.48420755
 C           -2.20171397        1.90787682       -3.23579227
 C           -0.84082454        2.15483057       -3.69749438
 C           -0.13213441        1.16353701       -4.37099274
 C           -2.15820297       -0.30834045       -4.30820205
 C           -0.79869986       -0.06829080       -4.75412924
