   70
C70 / DATE: 7/ 1/2024 / Origin: Program Fullerene / C70 from database
 C            1.61167762       -0.03572708        4.50034325
 C            0.79755973       -1.21901170        4.29957099
 C            1.34174898       -1.96099390        3.17302155
 C            2.65452504       -0.04623572        3.49361791
 C            2.54188711       -1.27535261        2.73018822
 C            2.58760656        1.20558744        2.76424217
 C            0.77116966        1.12131397        4.24824083
 C            1.36103522        1.87648456        3.15806511
 C           -0.58695407       -0.79418609        4.23831167
 C           -0.59506363        0.65551002        4.09881550
 C           -1.45465062       -1.53528162        3.45274368
 C            0.46321639       -2.47113030        2.21999226
 C           -0.89893540       -2.49837083        2.51187825
 C            0.87594801       -2.57437526        0.88870264
 C            2.80716738       -1.21038128        1.37009288
 C            2.11941785       -2.05606694        0.50236553
 C            2.91095747        1.18175293        1.41589542
 C            3.33346292       -0.02727950        0.86134596
 C            2.32091868        2.12562867        0.57872968
 C            0.52167254        2.36836829        2.16319932
 C            1.03690823        2.58624453        0.88096740
 C           -1.38917285        1.23244743        3.11066905
 C           -0.85809627        2.27336140        2.33777641
 C           -2.53850148       -0.85138432        2.77096896
 C           -2.51081085        0.53286500        2.65392202
 C           -1.85567132       -2.65162366        1.43253291
 C           -2.89613407       -1.64720076        1.60921137
 C           -0.02688773       -3.02272312       -0.08075449
 C           -1.40152502       -2.92826511        0.15173699
 C            0.43128966       -3.28497785       -1.36819089
 C            2.50131037       -2.08583150       -0.84153277
 C            1.75782499       -2.83550216       -1.74729978
 C            3.79263086       -0.02818197       -0.44699476
 C            3.39015129       -1.11847668       -1.32040139
 C            2.80330681        2.23939099       -0.71819593
 C            3.69756310        1.20491678       -1.20610861
 C            1.88355191        2.56927075       -1.78910806
 C            0.18672149        3.02759165       -0.14205387
 C            0.57079441        2.89900972       -1.48090389
 C           -1.68148276        2.95007285        1.45054371
 C           -1.13824607        3.34191340        0.16127522
 C           -3.34386084        1.12194297        1.71155429
 C           -3.02443932        2.45225368        1.23593810
 C           -3.43573528       -1.01632189        0.48816362
 C           -3.78761068        0.33129576        0.57054614
 C           -2.25903438       -2.65686731       -0.90823647
 C           -3.23717186       -1.59110213       -0.76590303
 C           -0.45655839       -3.06797785       -2.50134166
 C           -1.74126140       -2.60982514       -2.26177766
 C            1.70110691       -2.41182622       -3.13547424
 C            0.31219625       -2.43638900       -3.55378598
 C            3.21886475       -0.57227428       -2.66128300
 C            3.30718756        0.86964458       -2.56359258
 C            2.14075152        1.66226555       -2.90052525
 C            2.25110540       -1.11816128       -3.48844499
 C           -0.05399185       -1.09579347       -3.97475842
 C            1.06467561        1.05983788       -3.55165157
 C            1.15018138       -0.27738758       -3.94982366
 C           -0.39807072        2.69598900       -2.45921206
 C           -0.18810581        1.65909792       -3.45590589
 C           -2.17238241        3.13277662       -0.84054798
 C           -3.30079867        2.50065710       -0.18820798
 C           -3.69788181        1.17098845       -0.61518739
 C           -1.80184862        2.68213517       -2.09624943
 C           -3.13078243       -0.73896941       -1.94117971
 C           -2.17226624       -1.34883941       -2.85243607
 C           -1.25950458       -0.54970819       -3.54137475
 C           -1.38615569        0.83357964       -3.48919895
 C           -3.16433806        0.64187590       -1.78700888
 C           -2.37416250        1.44393251       -2.61051699
