   70
C70 / DATE: 7/ 1/2024 / Origin: Program Fullerene / C70 from database
 C            1.26189832       -0.06715959        4.53521108
 C            2.60281790       -0.29145048        4.03144973
 C            2.66463211       -1.65433137        3.53740492
 C            0.47335655       -1.25708194        4.25153805
 C            1.31723913       -2.20208239        3.55669072
 C           -0.75070992       -0.83576585        3.61482665
 C            0.51811528        1.08432783        4.05542849
 C           -0.77286496        0.61457217        3.58702769
 C            1.17484432        2.06649871        3.32969482
 C            3.11473013        0.57993539        2.98853659
 C            2.48913866        1.79402012        2.75150179
 C            3.37962652       -1.63800656        2.27309296
 C            3.47644798       -0.24907090        1.85013727
 C            3.03297436       -2.58860315        1.33001527
 C            0.84844090       -2.82959518        2.40463364
 C            1.81206181       -3.34794163        1.54457246
 C           -1.20824425       -1.51222743        2.49303905
 C           -0.43354652       -2.52725217        1.90421299
 C           -2.20733848       -0.89983906        1.74532861
 C           -1.38889994        1.23410587        2.50183912
 C           -2.31281423        0.49513492        1.76600677
 C            0.42426665        2.82990328        2.34792715
 C           -0.83435706        2.39108189        1.93665784
 C            2.46804707        2.30925852        1.39659215
 C            1.37630314        3.26050404        1.34360005
 C            3.05757442        0.12026015        0.56647203
 C            2.66093470        1.43842464        0.32210845
 C            3.01811405       -2.20362057       -0.06605267
 C            2.82404903       -0.86421562       -0.39756417
 C            1.41387399       -3.87146537        0.25968321
 C            2.23702088       -3.21385547       -0.74516464
 C           -0.88028243       -3.12612391        0.71086136
 C            0.03510309       -3.72793238       -0.14807785
 C           -2.83057630       -1.63810451        0.75292220
 C           -2.10457814       -2.74438407        0.16440597
 C           -3.57055367       -0.96698565       -0.30222342
 C           -3.08026025        1.15635016        0.81678318
 C           -3.72236882        0.41109663       -0.25129017
 C           -1.36309057        2.89576062        0.74188838
 C           -2.57053019        2.39564654        0.26355579
 C            0.89768690        3.62734986        0.10185173
 C           -0.53721967        3.60721504       -0.12729692
 C            2.15764164        1.79499657       -0.93214869
 C            1.50461822        3.02157261       -1.06630791
 C            2.15447979       -0.52928697       -1.57943893
 C            2.00378857        0.81779096       -1.92032023
 C            1.36138031       -2.79839660       -1.81561200
 C            0.04466761       -3.33541575       -1.54782060
 C            1.43581969       -1.50186007       -2.29212034
 C           -2.21417475       -2.61172996       -1.28170516
 C           -3.23777725       -1.61571776       -1.56123531
 C           -1.05463239       -2.65069900       -2.05501891
 C           -3.14406915       -0.86186480       -2.72407371
 C           -3.62127906        1.19800505       -1.46962449
 C           -2.83509789        2.38773170       -1.16916667
 C           -3.46137735        0.55822304       -2.69177558
 C           -0.73062664        3.48578632       -1.56517247
 C            0.57657493        3.22654675       -2.15857117
 C           -1.85516615        2.82730703       -2.05977554
 C            1.38688604        1.14372990       -3.13216524
 C            0.66090793        2.39803690       -3.26163359
 C            0.43061826       -1.09009885       -3.15534678
 C           -0.84806367       -1.65731739       -3.01961707
 C           -1.96681326       -1.02071047       -3.55639430
 C            0.61131018        0.12139239       -3.80767186
 C           -2.67232916        1.20594911       -3.72333688
 C           -1.83179916        2.33493150       -3.36435769
 C           -0.54995620        2.13812378       -4.01804896
 C           -1.81852009        0.19553555       -4.33045148
 C           -0.49807347        0.76308729       -4.48091678
