   70
C70 / DATE: 7/ 1/2024 / Origin: Program Fullerene / C70 from database
 C            1.24398090        0.03712677        4.44458139
 C            2.50622425       -0.15992591        3.76921046
 C            2.54844407       -1.54607819        3.34805893
 C            0.42174141       -1.14590048        4.21230546
 C            1.18680855       -2.05114573        3.39013236
 C           -0.86332536       -0.68932767        3.72872482
 C            0.43881716        1.17977564        4.07398156
 C           -0.93614803        0.71707257        4.06998106
 C            0.85867254        2.02518998        3.04512847
 C            2.80103957        0.65111981        2.60322459
 C            1.87663093        1.60675055        2.17701857
 C            3.25302141       -1.59656038        2.08118608
 C            3.41979758       -0.22469147        1.62081752
 C            2.84750149       -2.54956803        1.16131529
 C            0.63577113       -2.55140980        2.21459999
 C            1.51723721       -3.12199311        1.30621522
 C           -1.30838473       -1.09727710        2.47281110
 C           -0.60671942       -2.08043809        1.75524310
 C           -2.28730389       -0.33401486        1.83002384
 C           -1.87542856        1.50208904        3.42769283
 C           -2.65600948        0.90631914        2.35455257
 C           -0.04637654        2.98799685        2.61383277
 C           -1.44692636        2.80882631        2.96243595
 C            0.00568486        3.46010717        1.24159261
 C            1.81697796        1.92838052        0.81546015
 C            0.90362865        2.88194565        0.35040903
 C            3.24911591        0.06113030        0.27042671
 C            2.66588118        1.27830975       -0.08456872
 C            3.03748717       -2.27734332       -0.24980505
 C            3.30632623       -0.98033142       -0.66423558
 C            1.04667415       -3.47666645       -0.01052296
 C            2.04837396       -3.05326632       -0.97748388
 C           -1.07618673       -2.47176768        0.49119396
 C           -0.28743552       -3.29781212       -0.32705972
 C           -2.66549729       -0.65421449        0.52844469
 C           -2.21629970       -1.84941560       -0.03347314
 C           -3.26905585        0.32424765       -0.27498172
 C           -3.02043909        1.97168124        1.43870083
 C           -2.24471698        3.14520059        1.80123431
 C           -1.35951021        3.71835177        0.80730248
 C           -3.16444221        1.66213804        0.09364604
 C           -1.67811991        3.52408635       -0.52687941
 C           -2.74145094        2.58873693       -0.86088384
 C            0.68048881        3.02629403       -1.02249159
 C           -0.60655824        3.29980581       -1.47948317
 C            2.67874249        1.67179885       -1.41544117
 C            1.58052640        2.46875839       -1.92142006
 C            3.15546363       -0.69424783       -2.01516533
 C            3.00391016        0.68635929       -2.42693335
 C            1.62557524       -2.62036182       -2.23544037
 C            2.23879732       -1.50267876       -2.80984911
 C           -0.61279423       -3.44637965       -1.66716915
 C            0.34439907       -2.97926069       -2.65919907
 C           -2.75287851       -2.27878123       -1.24431626
 C           -1.93660006       -3.08745621       -2.11887986
 C           -3.55706647        0.04348784       -1.60510843
 C           -3.42997199       -1.31530388       -2.08585107
 C           -2.51425091        2.15026163       -2.23000388
 C           -1.14596633        2.50407679       -2.57284578
 C           -3.00687960        0.91833946       -2.62529177
 C            1.05807921        1.79697781       -3.10270961
 C            1.97449019        0.73906057       -3.45243445
 C            1.44747036       -0.59406917       -3.62890652
 C           -0.31164558        1.57584962       -3.19373943
 C           -0.38020992       -2.09308986       -3.55231422
 C           -1.79080925       -2.36764055       -3.37511621
 C           -2.71224701       -1.25814020       -3.35107104
 C           -2.18531397        0.08628105       -3.48156728
 C            0.07331944       -0.78613438       -3.70731653
 C           -0.80413172        0.29875872       -3.51152597
