   70
C70 / DATE: 7/ 1/2024 / Origin: Program Fullerene / C70 from database
 C            1.17318813       -0.16555209        4.68768634
 C            2.40356825       -0.50895172        4.01318156
 C            2.23551819       -1.83695333        3.43661646
 C            0.31312871       -1.33594360        4.63629414
 C            0.84332551       -2.20463100        3.60521517
 C           -1.04554476       -0.86293336        4.50596633
 C            0.39837967        0.95026205        4.18420383
 C           -0.99559630        0.58438811        4.34158472
 C            0.78824091        1.58798677        3.00804268
 C            2.87415345        0.35136734        2.94656213
 C            2.07789703        1.40157372        2.48604280
 C            2.78630674       -1.79269736        2.09194074
 C            3.48464688       -0.52606199        1.97156299
 C            2.00619518       -2.23019130        1.02327848
 C            0.08450903       -2.46957514        2.46678032
 C            0.74605012       -2.77784846        1.27754961
 C           -1.85883913       -1.37704488        3.42268862
 C           -1.29201163       -2.19547986        2.44397426
 C           -1.92967335        0.92735267        3.28171600
 C           -2.69262221       -0.27402464        2.99684398
 C           -0.18690529        2.21305755        2.23000840
 C           -1.48996341        1.70872367        2.21489391
 C            0.21488395        3.06578845        1.21474688
 C            2.41024361        1.98927532        1.26090042
 C            1.57873798        2.96863721        0.72870250
 C            3.71140987       -0.02331830        0.70422205
 C            3.32331970        1.34920794        0.42406454
 C            2.32438214       -1.79762884       -0.26916132
 C            3.28818583       -0.81172777       -0.43922207
 C            1.48891622       -2.12559983       -1.33739025
 C            0.01416210       -3.29714357        0.22208946
 C            0.48202918       -3.06303091       -1.12989383
 C           -2.00851818       -2.39510092        1.25924715
 C           -1.42641736       -3.12249062        0.22686293
 C           -3.31730788       -0.37480419        1.76805296
 C           -3.09998112       -1.57484676        0.97711721
 C           -2.20575242        1.67780682        1.01263729
 C           -3.22273267        0.74563520        0.84946139
 C           -0.65178421        3.23452035        0.06496119
 C           -1.71868274        2.35770799       -0.10412227
 C            1.55571718        3.20418871       -0.71013982
 C            0.19021423        3.57433642       -1.06456994
 C            3.17550930        1.45358344       -1.01806047
 C            3.16656398        0.10014173       -1.55597661
 C            2.30979281        2.39537775       -1.56417161
 C            1.48449721       -1.34134756       -2.50085966
 C            2.28737112       -0.19776524       -2.58837274
 C            0.54887093       -1.59887878       -3.50440605
 C           -0.67840091       -3.08115488       -1.99785192
 C           -1.85233510       -2.90451166       -1.15057115
 C           -0.61147196       -2.42743798       -3.21601463
 C           -3.40175594       -1.22507570       -0.40095270
 C           -3.49025516        0.22682838       -0.47442766
 C           -2.78947265       -1.91082918       -1.44475676
 C           -2.10566438        1.96883551       -1.39554116
 C           -2.95209189        0.86923415       -1.58135234
 C           -0.27480704        3.32275234       -2.34372385
 C           -1.50698836        2.56675864       -2.50590873
 C            1.88491056        2.20112476       -2.87672253
 C            1.90388445        0.85122140       -3.42045770
 C            0.66759382        2.84437799       -3.33369604
 C            0.11220545       -0.51856999       -4.37436133
 C           -1.40797599        1.82754264       -3.75424531
 C            0.76378566        0.70405360       -4.30823865
 C           -0.03039095        1.91901285       -4.20890075
 C           -1.78515857       -1.71542181       -3.67697190
 C           -2.77366222       -1.30333629       -2.69844783
 C           -2.89069666        0.14561901       -2.76981007
 C           -1.34112431       -0.53352350       -4.39488325
 C           -2.06771033        0.61315255       -3.87151651
