   70
C70 / DATE: 7/ 1/2024 / Origin: Program Fullerene / C70 from database
 C            1.53516947        0.10316836        4.78187123
 C            0.73270355       -1.09804706        4.63771266
 C            1.52311174       -2.06551492        3.91490085
 C            2.68890817       -0.03155819        3.90698362
 C            2.73308568       -1.39874865        3.45096976
 C            2.61788227        1.02218605        2.91439488
 C            0.74385224        1.22079146        4.29847582
 C            1.49733162        1.87774426        3.25873233
 C           -0.55088331       -0.71112573        4.08613814
 C           -0.57405358        0.73397552        3.95887276
 C           -1.12439281       -1.45678690        3.06048118
 C            0.92584713       -2.72279058        2.76891043
 C           -0.40091669       -2.48510199        2.43218620
 C            2.84250700       -1.64646165        2.02753265
 C            1.90087343       -2.70005052        1.70376077
 C            2.83316179        0.74019649        1.56134858
 C            2.97846369       -0.58726274        1.12641582
 C            2.43963820        1.71086544        0.63495159
 C            0.80625392        2.45353869        2.20726195
 C            1.52184246        2.68488407        1.04717063
 C           -1.21436328        1.27210773        2.84634509
 C           -0.58029527        2.27701153        2.09821140
 C           -2.18791577       -0.87722661        2.37034641
 C           -2.21930372        0.51713882        2.24537094
 C           -2.88902920       -1.67690766        1.47455779
 C           -0.83484023       -2.93391592        1.18503607
 C           -2.18819463       -2.80740097        0.90228439
 C            1.44868208       -2.76727870        0.39552612
 C            0.09877350       -3.03730528        0.13718767
 C            2.78442723       -0.87585832       -0.22646530
 C            2.18300648       -2.09361489       -0.56772338
 C            2.63519062        1.47141821       -0.72694109
 C            2.83155803        0.16116954       -1.16020785
 C            2.31575242        2.46613657       -1.65091790
 C            0.94636875        3.53141072        0.11938370
 C            1.47385080        3.56294369       -1.22581933
 C           -1.23543434        2.81361241        0.97657068
 C           -0.50247146        3.55785005        0.04775704
 C           -2.99110143        1.11751376        1.26010243
 C           -2.46743164        2.29062809        0.58512294
 C           -3.69422739       -1.07285649        0.42761821
 C           -3.68405666        0.30338024        0.27774235
 C           -2.65631375       -2.98772979       -0.45133435
 C           -3.58396059       -1.90845579       -0.75191690
 C           -0.32624043       -3.12157090       -1.20205442
 C           -1.67977198       -3.04515223       -1.51420406
 C            1.91507942       -2.38780757       -1.89198990
 C            0.58335317       -2.85657841       -2.22704584
 C            2.75834169       -0.13699177       -2.52014377
 C            2.34487325       -1.46534183       -2.92091156
 C            1.89215766        2.09681693       -2.99012058
 C            2.12516721        0.80277477       -3.42845226
 C            0.34874487        3.64430735       -2.14118574
 C           -0.86899558        3.50677170       -1.36036143
 C            0.59658236        2.71809498       -3.22824142
 C           -2.77498402        2.16258425       -0.83315080
 C           -3.44376779        0.88640604       -1.03536255
 C           -1.85814814        2.61911712       -1.77287147
 C           -3.17230652       -1.30607164       -2.00697762
 C           -2.10877507       -2.12944604       -2.56012125
 C           -3.08349661        0.07842578       -2.11433007
 C            0.13262004       -2.10112673       -3.38707300
 C            1.25945572       -1.32777584       -3.87851276
 C            1.08223680        0.08490485       -4.14698886
 C           -1.14495366       -1.54435996       -3.37631412
 C           -0.45749198        1.94976897       -3.70375782
 C           -1.72467254        1.93825246       -2.98364861
 C           -2.31010719        0.61505253       -3.13684501
 C           -0.20522369        0.60333469       -4.19181807
 C           -1.33873354       -0.23206189       -3.81442601
