   70
C70 / DATE: 7/ 1/2024 / Origin: Program Fullerene / C70 from database
 C            1.28622253       -0.02016244        4.46729732
 C            2.61339220       -0.25720045        3.93343733
 C            2.63248031       -1.60200463        3.38733447
 C            0.46879036       -1.18507813        4.16240197
 C            1.26801279       -2.10354241        3.38413485
 C           -0.77628800       -0.71769325        3.60165192
 C            0.55595784        1.15882742        4.03632036
 C           -0.76811868        0.73183691        3.62201065
 C            1.20689111        2.13607661        3.29842156
 C            3.13393717        0.64016588        2.91698134
 C            2.50759886        1.85723146        2.69503715
 C            3.35116392       -1.56172137        2.12750248
 C            3.53643361       -0.16249454        1.77337000
 C            2.95879417       -2.44257128        1.13390504
 C            0.75556008       -2.62445080        2.19741336
 C            1.66408248       -3.09680444        1.25847856
 C           -1.30046855       -1.34285668        2.47934661
 C           -0.54446168       -2.29900341        1.78143848
 C           -2.33870206       -0.69408514        1.82020985
 C           -1.42518695        1.39517431        2.58870038
 C           -2.41604540        0.70096203        1.89519950
 C            0.44325682        2.91587927        2.34099991
 C           -0.85332984        2.53118622        2.00032196
 C            2.48094557        2.39407792        1.34806483
 C            1.35866123        3.30980249        1.28714913
 C            3.22747217        0.26172989        0.47752015
 C            2.73585069        1.55786408        0.26165098
 C            3.08472846       -2.03041376       -0.25006141
 C            3.20364100       -0.67957932       -0.55595126
 C            1.20793480       -3.41371851       -0.07798255
 C            2.16397887       -2.84839115       -1.01835381
 C           -1.02828810       -2.79145917        0.55781262
 C           -0.14447179       -3.34038056       -0.38085105
 C           -3.01558937       -1.38387351        0.82584885
 C           -2.33816753       -2.49139457        0.18002162
 C           -3.76581283       -0.65793500       -0.18380910
 C           -3.21885408        1.40872496        1.00979411
 C           -3.91896235        0.71283584       -0.05718630
 C           -1.42795947        3.06180977        0.84100735
 C           -2.71127025        2.65936673        0.47940509
 C            0.83580667        3.63326946        0.04863595
 C           -0.60730237        3.66243960       -0.11750991
 C            2.29049588        1.94196855       -1.00744823
 C            1.39239645        3.00121796       -1.13661145
 C            2.91518421       -0.27328271       -1.85086996
 C            2.44996360        1.07916502       -2.08416623
 C            1.69664018       -2.38648351       -2.24471626
 C            2.17053571       -1.16461623       -2.73199402
 C           -0.48874474       -3.36651844       -1.73102449
 C            0.48200719       -2.88992025       -2.70489615
 C           -2.70617501       -2.47035269       -1.22591357
 C           -3.43091525       -1.23096726       -1.48063713
 C           -1.80774014       -2.94369777       -2.16530683
 C           -3.06774762       -0.40253903       -2.54983512
 C           -3.84237726        1.53387754       -1.24787714
 C           -3.11998194        2.74881226       -0.91181875
 C           -3.24501081        0.97410457       -2.44545910
 C           -0.87466530        3.46002009       -1.53396538
 C            0.33168033        2.91522769       -2.13064685
 C           -2.10567165        2.96577577       -1.92625048
 C           -2.15718845        1.84970915       -2.85513499
 C            1.41941979        1.02957128       -3.11105480
 C            1.33704017       -0.33555245       -3.59457626
 C            0.26357349        1.79178954       -2.95160302
 C           -0.98116163        1.27789673       -3.34168835
 C           -0.24061443       -2.18820681       -3.74805694
 C           -1.65435890       -2.21949116       -3.41196855
 C           -2.16472222       -0.86490401       -3.50232649
 C            0.12261081       -0.81812847       -4.04963707
 C           -1.06678686        0.00307833       -3.90163677
