   70
C70 / DATE: 7/ 1/2024 / Origin: Program Fullerene / C70 from database
 C            1.09176339        0.06721300        4.63959765
 C            2.31959690       -0.32565146        3.98875010
 C            2.22371605       -1.74946632        3.70823224
 C            0.25920307       -1.12248722        4.74629267
 C            0.82708725       -2.11019099        3.85243294
 C           -1.10723065       -0.70841602        4.53800078
 C            0.27747668        1.09108231        4.01910946
 C           -1.09228634        0.72853681        4.30697418
 C            0.58565178        1.54436102        2.73570730
 C            2.68317096        0.32104457        2.74564326
 C            1.81542551        1.23374196        2.14056839
 C            2.86413198       -1.98569188        2.42960647
 C            3.30278628       -0.69586642        1.91819178
 C            2.25925465       -2.86719368        1.54765964
 C            0.12072051       -2.52483135        2.71850053
 C            0.83343636       -3.13903744        1.69014747
 C           -1.84388753       -1.28962808        3.43592112
 C           -1.16572830       -2.02610839        2.46065943
 C           -2.09540614        1.00053369        3.29877364
 C           -2.76414042       -0.25457682        3.01115061
 C           -0.42513682        2.10619133        1.95449080
 C           -1.77252787        1.81920877        2.22433253
 C           -0.09068246        2.71024992        0.74499915
 C            2.00926919        1.51775135        0.78545046
 C            1.09577399        2.33081727        0.10239873
 C            3.31964752       -0.48987501        0.54574553
 C            2.94582914        0.76688650        0.07051995
 C            2.53380187       -2.71570139        0.13293835
 C            3.22540323       -1.59325090       -0.30852372
 C            0.25964928       -3.20200454        0.35740353
 C            1.34718010       -3.12413062       -0.59724058
 C           -1.69746250       -2.07734912        1.16388227
 C           -0.91641414       -2.51825046        0.09478850
 C           -3.37034215       -0.38950283        1.77448985
 C           -2.91416629       -1.45723227        0.90226770
 C           -2.69642754        1.89675850        1.18458165
 C           -3.50986233        0.79351378        0.93863487
 C           -1.11137814        3.32521328        0.02839125
 C           -2.45081186        2.78717691        0.15059131
 C           -0.90574356        3.67305215       -1.35799500
 C            1.31590948        2.64726688       -1.24936990
 C            0.29865635        3.21619194       -2.00708719
 C            3.20054931        1.07278495       -1.25561778
 C            2.32529466        1.99593172       -1.94817031
 C            3.25923272       -1.37200381       -1.68042243
 C            3.49436194       -0.02272617       -2.15677562
 C            1.11456136       -2.55252217       -1.84135112
 C            2.18859877       -1.93694966       -2.48778327
 C           -1.17777426       -2.07094863       -1.20784063
 C           -0.18901113       -2.20355233       -2.20034952
 C           -3.22876928       -1.06212343       -0.45624719
 C           -3.67232351        0.32486003       -0.42604842
 C           -2.41255924       -1.47110056       -1.50094395
 C           -2.91046262        2.46503506       -1.19239406
 C           -2.04226284        3.17256739       -2.11685371
 C           -3.32614525        1.16457120       -1.48219599
 C           -0.07947909        2.57724661       -3.25790450
 C           -1.53268023        2.47355065       -3.27918631
 C            2.01737978        1.43290378       -3.25614624
 C            2.71926118        0.16817298       -3.37012785
 C            1.94840515       -1.03671128       -3.60571420
 C            0.71580517        1.53770118       -3.74258946
 C           -0.39830776       -1.68253342       -3.47466126
 C            0.65949916       -0.90870765       -4.09689251
 C            0.12003055        0.42260175       -4.34095893
 C           -2.59760000       -0.82449656       -2.71582959
 C           -2.98328314        0.57772439       -2.70265491
 C           -2.12667502        1.27898137       -3.65028078
 C           -1.64432608       -1.01822075       -3.78080554
 C           -1.32622678        0.28761462       -4.34086363
