   70
C70 / DATE: 7/ 1/2024 / Origin: Program Fullerene / C70 from database
 C            1.17998824        0.13336122        4.70112273
 C            2.43134028        0.02981748        3.98486321
 C            2.49466128       -1.31790336        3.45815089
 C            0.36189203       -1.01294515        4.31299461
 C            1.14065716       -1.81545805        3.39393040
 C           -0.92148334       -0.50667740        3.87582304
 C            0.38223136        1.32038160        4.49358970
 C           -0.98209517        0.87459904        4.29260426
 C            0.70494580        2.19434474        3.37566032
 C            2.67757802        0.93015580        2.86697960
 C            1.67842113        1.80708717        2.45799288
 C            3.22323199       -1.24508696        2.21795242
 C            3.38729712        0.15970963        1.87227197
 C            2.85299138       -2.08906601        1.18715528
 C            0.62173559       -2.12081004        2.13775867
 C            1.50522103       -2.49049282        1.11595844
 C           -1.38469380       -0.82231152        2.60099804
 C           -0.68754617       -1.74428500        1.80905569
 C           -2.35121179       -0.00012256        2.00860316
 C           -1.59534161        1.80932743        3.38267379
 C           -0.55746310        2.70166411        2.88615038
 C           -2.49724022        1.32951529        2.44859461
 C           -0.65836695        3.12326299        1.56426341
 C            1.45638515        2.02097791        1.09191927
 C            0.40125711        2.85515671        0.68889320
 C            3.28037243        0.50128280        0.52671412
 C            2.27378420        1.39441303        0.12941775
 C            3.52902610       -1.85952748        0.00327165
 C            3.70866939       -0.46856946       -0.37852868
 C            3.14628193       -2.60612550       -1.16631060
 C            0.97419744       -2.93085222       -0.10152437
 C            1.82840008       -3.19134814       -1.17582448
 C           -1.19638038       -2.08215182        0.55439121
 C           -0.39774004       -2.81362024       -0.33567126
 C           -2.92248518       -0.40357821        0.79692244
 C           -2.40869514       -1.51910569        0.13134716
 C           -3.77696007        0.45995770        0.10790275
 C           -2.94075446        2.28023931        1.54527711
 C           -1.95129206        3.21915120        1.04712409
 C           -3.76740721        1.86359728        0.44318244
 C           -2.15966097        3.36804445       -0.38152950
 C           -3.33503256        2.59266541       -0.73928439
 C            0.26656454        3.19254312       -0.65454568
 C           -1.06236911        3.35220042       -1.22529687
 C            1.98972140        1.54934743       -1.23557949
 C            1.08697265        2.52318999       -1.64432626
 C            3.35502353       -0.35591992       -1.77681614
 C            3.22932116       -1.70650799       -2.30185986
 C            2.43111357        0.60210629       -2.16407700
 C            1.33212514       -3.06189580       -2.53434286
 C            2.11393848       -2.01366910       -3.17949445
 C           -0.90037024       -3.19763988       -1.57707772
 C           -0.03637467       -3.11973693       -2.74055840
 C           -2.93824051       -1.84943369       -1.11499040
 C           -2.20588202       -2.73760807       -1.99104115
 C           -3.83300846        0.39458033       -1.33950242
 C           -3.24802670        1.63258733       -1.82668683
 C           -3.46850907       -0.78827294       -1.95060929
 C           -1.11341042        2.56260480       -2.44553567
 C            0.25904003        2.28320360       -2.81766648
 C           -2.09111488        1.57669099       -2.60235897
 C            1.71396858        0.39762198       -3.34325784
 C            1.45897469       -0.95965768       -3.80298593
 C            0.52488055        1.18249034       -3.61180351
 C           -0.66034785       -2.19426517       -3.67287506
 C           -2.04517292       -2.05330721       -3.26829533
 C           -2.60441372       -0.72308029       -3.11242182
 C           -1.78899443        0.39572532       -3.28870041
 C            0.03802519       -1.06760506       -4.09043964
 C           -0.55215053        0.25503313       -3.91969196
