   70
C70 / DATE: 7/ 1/2024 / Origin: Program Fullerene / C70 from database
 C            1.24266928       -0.03644843        5.05900534
 C            0.48130488       -1.22065544        4.69002321
 C            1.38022813       -2.13097727        4.02714790
 C            2.53165249       -0.12007026        4.39777211
 C            2.66988222       -1.46349797        3.89245840
 C            2.62322277        0.97969152        3.45638552
 C            0.54574242        1.11940318        4.52249594
 C            1.41742567        1.78792523        3.58595266
 C           -0.69728022       -0.78002344        3.97504584
 C           -0.72891997        0.66811091        4.03086773
 C           -1.07297604       -1.38937053        2.77267617
 C            1.01324765       -2.63803841        2.71685266
 C           -0.17967037       -2.24323635        2.10636298
 C            3.09520428       -1.63423061        2.52070742
 C            2.22378333       -2.63095829        1.92462471
 C            3.14768347        0.77093420        2.18023408
 C            3.46388847       -0.53119219        1.74821110
 C            2.92304177        1.77841898        1.24362209
 C            0.86397392        2.34374776        2.43246039
 C            1.72907848        2.59949172        1.37694438
 C           -1.28098060        1.30661029        2.93818517
 C           -0.50646078        2.18665855        2.16644050
 C           -2.05402528       -0.73940700        2.02185230
 C           -2.28209542        0.61572221        2.28668261
 C           -2.40387574       -1.25621794        0.77411260
 C           -0.29167124       -2.40979821        0.71973508
 C           -1.44886701       -1.97702491        0.05751154
 C            2.10484020       -2.64252277        0.54525874
 C            0.83698078       -2.80022033       -0.01285366
 C            3.68116753       -0.77845773        0.39336596
 C            3.07432336       -1.96486871       -0.18826473
 C            3.14627794        1.53927493       -0.16813711
 C            3.56339257        0.29030424       -0.58295003
 C            1.19677598        2.83924029        0.04945413
 C            2.09652948        2.21926625       -0.90515767
 C           -1.02892656        2.60447604        0.92886208
 C           -0.17490965        2.75496301       -0.16876800
 C           -3.06129806        1.34975540        1.41860806
 C           -2.39201911        2.41731770        0.69818470
 C           -3.49202271       -0.69970439        0.11038706
 C           -3.90193935        0.63577228        0.48865694
 C           -3.57140436       -0.78079039       -1.33521688
 C           -1.56936934       -2.12995439       -1.33251058
 C           -2.59788034       -1.48955979       -2.03458507
 C            0.74576561       -2.93628261       -1.39060632
 C           -0.52664145       -2.70985474       -2.04710248
 C            2.84443909       -1.70389149       -1.59644788
 C            3.00967419       -0.27599532       -1.80305840
 C            1.78347561       -2.33996068       -2.22097908
 C            1.54519021        1.63481157       -2.03529810
 C            2.03399743        0.41563980       -2.51916929
 C           -0.63521009        2.47706062       -1.46578721
 C            0.28795668        2.06311145       -2.44019822
 C           -2.90046094        2.40830561       -0.66128720
 C           -3.97782873        1.43553559       -0.71411637
 C           -4.00806330        0.52192173       -1.83464591
 C           -2.01299647        2.45954471       -1.72949972
 C           -3.47891747        0.97219299       -3.03184376
 C           -2.48105227        2.03679641       -2.97583720
 C           -2.46559056       -1.26167821       -3.40794471
 C           -2.98703783       -0.02320396       -3.95866377
 C           -0.22491026       -2.22497387       -3.38089978
 C            1.11285041       -1.66045830       -3.31302788
 C            1.28461460       -0.28297501       -3.47128016
 C           -1.19930718       -1.52741966       -4.07079667
 C           -0.13880787        1.68193103       -3.70302631
 C           -1.53605987        1.80877493       -4.04571556
 C           -1.93644198        0.59831541       -4.74230543
 C            0.34686329        0.41784081       -4.22562836
 C           -0.80122583       -0.30494775       -4.74353858
