   70
C70 / DATE: 7/ 1/2024 / Origin: Program Fullerene / C70 from database
 C            1.53105671        0.01516464        4.72114775
 C            0.76032132       -1.20791406        4.59138822
 C            1.43931081       -2.07232472        3.63942316
 C            2.68666820       -0.10146965        3.85313742
 C            2.71250875       -1.44926771        3.31624704
 C            2.66145062        1.01002526        2.91832374
 C            0.71130669        1.10326690        4.21801416
 C            1.40485266        1.71246177        3.10070912
 C           -0.61344849       -0.83322693        4.32054182
 C           -0.62221653        0.58598230        3.99273755
 C           -1.37752756       -1.69026563        3.54227391
 C            0.68817939       -2.68283230        2.63285731
 C           -0.70197413       -2.72074583        2.76666164
 C            1.28104541       -2.97272088        1.39723579
 C            3.23985563       -1.62752988        2.04912624
 C            2.56887491       -2.52049743        1.12104600
 C            3.10533797        0.79445165        1.61964966
 C            3.63628756       -0.45434046        1.28777641
 C            2.60341870        1.60135026        0.59905200
 C            0.67552156        2.05912933        1.96892760
 C            1.34573613        2.19732553        0.75426746
 C           -1.31841058        1.00307336        2.86291562
 C           -0.70992960        1.88891357        1.96059049
 C           -2.40608985       -1.12448852        2.68784152
 C           -2.41104524        0.24474957        2.44405621
 C           -1.53967594       -3.02140518        1.61788049
 C           -2.60432357       -2.03311052        1.56941664
 C            0.50158071       -3.42660841        0.33469525
 C           -0.94685371       -3.43184892        0.44028730
 C            0.84916528       -3.03030180       -1.02332107
 C            2.88913601       -2.07046909       -0.22774767
 C            3.68544997       -0.85924515       -0.10669899
 C            1.92040901       -2.17142956       -1.22786691
 C            3.12953746        1.43822810       -0.67462768
 C            3.56381596        0.11337906       -1.08096606
 C            2.45342560        2.03308655       -1.80779886
 C            0.63745815        2.65818760       -0.36146330
 C            1.28017780        2.74902777       -1.60573071
 C           -1.42970034        2.32959089        0.85219704
 C           -0.74819822        2.84536567       -0.25292499
 C           -3.17783589        0.71130531        1.38780560
 C           -2.74972350        1.91210057        0.70405981
 C           -3.01946276       -1.50368392        0.34769131
 C           -3.59250831       -0.23235482        0.36209643
 C           -1.48748690       -2.96831058       -0.82368883
 C           -0.38180053       -2.82371167       -1.75783844
 C           -2.52140220       -2.03336883       -0.85103016
 C           -0.44955038       -1.82687754       -2.72193417
 C            1.84888230       -1.20070730       -2.23394818
 C            2.82355282       -0.20583201       -2.28338061
 C            2.50556054        1.06609358       -2.89497132
 C            0.68740196       -1.06357249       -3.01014099
 C            1.50949129        1.10594177       -3.85337487
 C            0.59954678       -0.02620241       -3.94504410
 C            0.56465422        3.12266206       -2.74016078
 C            0.70987007        2.31401013       -3.93905275
 C           -1.49020166        3.26912689       -1.35260378
 C           -0.83103328        3.47735470       -2.62195991
 C           -3.35284575        1.88570874       -0.61688846
 C           -3.76585783        0.51200120       -0.87241936
 C           -2.76130488        2.62589628       -1.62850250
 C           -2.76792773       -1.38177831       -2.05895073
 C           -1.71158390       -1.34269462       -3.05807052
 C           -3.44014043       -0.09409473       -2.07523015
 C           -0.70597629        0.48920555       -4.32898171
 C           -0.61793151        1.93793746       -4.38511414
 C           -1.57022581        2.73328783       -3.63395172
 C           -2.67383444        2.06685466       -2.96668712
 C           -1.84500512       -0.10761949       -3.80729879
 C           -2.86781611        0.70060484       -3.15170735
