   70
C70 / DATE: 7/ 1/2024 / Origin: Program Fullerene / C70 from database
 C            1.60702506        0.18398811        4.87527677
 C            0.80936176       -1.02542455        4.80035198
 C            1.62328093       -2.02874546        4.15486764
 C            2.72366291        0.03039325        3.95529453
 C            2.77693714       -1.35830582        3.56899776
 C            2.58193726        1.03404256        2.91679204
 C            0.78986329        1.27598480        4.38620506
 C            1.53180604        1.94258761        3.33575648
 C           -0.47198563       -0.68689144        4.20023836
 C           -0.52140802        0.75658221        4.04508996
 C           -0.98735119       -1.48431342        3.18125915
 C            1.01489866       -2.82126004        3.10909794
 C           -0.34262958       -2.68714561        2.84315857
 C            2.79232839       -1.68344849        2.15670652
 C            1.92204282       -2.82666312        1.97697966
 C            2.64133468        0.67391986        1.56581323
 C            2.75574731       -0.67567106        1.19745517
 C            2.16741543        1.59979171        0.62292473
 C            0.80224524        2.55718795        2.33445918
 C            1.40239027        2.67421896        1.08673507
 C           -1.14190547        1.29631815        2.92248927
 C           -0.58873994        2.45170732        2.37658621
 C           -1.90568791       -0.91153567        2.29373119
 C           -1.90739577        0.47189767        2.09152388
 C           -2.59462210       -1.72838938        1.40666411
 C           -0.81085211       -3.41089363        1.75519605
 C           -2.09573155       -3.06743988        1.18704709
 C            1.37896477       -3.05693865        0.71682586
 C            0.11506010       -3.64118785        0.65440190
 C            2.43815820       -1.04018337       -0.10410935
 C            1.79339092       -2.25954089       -0.35104877
 C            2.12732554        1.24610790       -0.73371957
 C            2.44750288       -0.06371891       -1.09093615
 C            1.53055219        2.10346431       -1.67049263
 C            0.80688902        3.53920594        0.18331636
 C            0.93309014        3.28508548       -1.23744119
 C           -1.31381191        3.11996435        1.40224948
 C           -0.57142890        3.91298843        0.44058106
 C           -2.43984501        1.00398466        0.90830713
 C           -2.31335095        2.36593745        0.66360043
 C           -3.00236441       -1.19057035        0.11977524
 C           -2.78983265        0.15835052       -0.14496109
 C           -2.01936654       -3.28760985       -0.24499576
 C           -0.63916231       -3.57615911       -0.58560808
 C           -2.66034217       -2.16550004       -0.90081066
 C            1.23308081       -2.47730023       -1.60781708
 C           -0.08881748       -2.92417418       -1.68247575
 C            2.34819522       -0.46935085       -2.41468448
 C            1.76177863       -1.77140980       -2.68337963
 C            1.28257214        1.65988036       -2.97404841
 C            1.84146996        0.45935715       -3.40393224
 C            0.26157871        2.25963853       -3.71676598
 C           -0.29941929        3.73263109       -1.86969385
 C           -1.28600053        3.86697882       -0.81624748
 C           -2.31275660        2.84441923       -0.70853896
 C           -0.69798026        3.09828802       -3.03106069
 C           -2.60044765        0.57509624       -1.47130646
 C           -2.44368246        1.93974128       -1.75863002
 C           -1.93461899        2.33105218       -2.99663298
 C           -2.11649925       -1.70007021       -2.08759320
 C           -0.95954077       -2.30835681       -2.58241068
 C           -2.40042718       -0.39362954       -2.46779731
 C            0.97715869       -1.66128503       -3.89913978
 C            1.18200067       -0.32779623       -4.43517904
 C           -0.45144133       -1.88657051       -3.80562168
 C           -0.52496457        1.46548927       -4.64367630
 C           -1.86210775        1.37077390       -4.07589484
 C           -2.10403875       -0.01978940       -3.77357587
 C           -0.08679909        0.12499919       -4.96635080
 C           -1.11368971       -0.79478510       -4.49917833
