   70
C70 / DATE: 7/ 1/2024 / Origin: Program Fullerene / C70 from database
 C            1.33628552        0.01517883        4.50472191
 C            2.61719775       -0.11674895        3.84006032
 C            2.59598539       -1.35612788        3.08331562
 C            0.51461970       -1.11955352        4.11623531
 C            1.26558711       -1.92431642        3.17468310
 C           -0.77573317       -0.61511802        3.70213309
 C            0.56197601        1.22420543        4.29026261
 C           -0.75397258        0.83443673        3.79901983
 C            1.18470939        2.33845620        3.74448851
 C            3.05817253        0.94377682        2.94863409
 C            2.42826252        2.17845404        2.99410062
 C            3.12421515       -1.07941410        1.76510264
 C            3.35015821        0.35052939        1.65372449
 C            2.55980294       -1.71958013        0.67769901
 C            0.64237959       -2.33517239        1.99883389
 C            1.41529718       -2.50498607        0.85318305
 C           -1.39288906       -1.17933607        2.59952692
 C           -0.73390623       -2.16408645        1.85349423
 C           -2.38861417       -0.44133820        1.98393727
 C           -1.38654538        1.58973987        2.80370615
 C           -2.22224932        0.94422717        1.88293131
 C            0.36606895        3.30093058        3.03506355
 C           -0.91986361        2.87277139        2.51368403
 C            2.30335259        2.94400447        1.76873093
 C            1.14585213        3.80626229        1.92021000
 C            2.96118094        1.00218171        0.47725404
 C            2.52829182        2.33326244        0.53398401
 C            2.78147460       -1.16055683       -0.56911199
 C            2.74647572        0.23315504       -0.68030011
 C            2.49322979       -1.95261302       -1.66636401
 C            0.82799942       -3.06903750       -0.27983546
 C            1.58620009       -3.06188301       -1.45226171
 C           -1.35364439       -2.65254041        0.69943920
 C           -0.57182449       -3.15775321       -0.34767139
 C           -3.21188804       -1.10583182        1.09142123
 C           -2.68673832       -2.30316559        0.46128716
 C           -3.90571680       -0.33776851        0.08196525
 C           -2.54914348        1.59545933        0.68677867
 C           -3.42224952        0.99457404       -0.20824491
 C           -1.02732885        3.37415812        1.15343914
 C            0.25278182        3.96148526        0.78918578
 C           -1.72676718        2.61463394        0.22139539
 C            1.98104403        2.92707225       -0.59887525
 C            0.75609521        3.70858665       -0.47447893
 C            2.23205013        0.82575184       -1.84208618
 C            1.89014162        2.17266573       -1.83339536
 C            2.10997367       -1.32330926       -2.91013855
 C            1.78238769        0.02559127       -2.89673475
 C            0.97807369       -3.37499732       -2.72723045
 C            1.26013163       -2.26498127       -3.62529224
 C           -1.20054217       -3.54042352       -1.53603110
 C           -0.44027754       -3.63601522       -2.76796724
 C           -3.23431784       -2.36931077       -0.88457134
 C           -3.89335669       -1.10416152       -1.15052236
 C           -2.46780113       -2.93250044       -1.88924022
 C           -3.11001005        1.05931036       -1.62462134
 C           -3.36656995       -0.25354046       -2.20233336
 C           -1.35233387        2.63322483       -1.12815823
 C           -0.15053716        3.23334401       -1.49883496
 C            0.67254691        2.59531846       -2.50411099
 C           -1.99453212        1.78308193       -2.03644148
 C            0.75215574        0.48464761       -3.71910514
 C            0.06892081        1.72095857       -3.38835378
 C           -1.33805147        1.39690703       -3.20547516
 C           -0.00164812       -1.80368155       -4.17438358
 C           -1.03777697       -2.71267718       -3.72259673
 C           -2.23818676       -2.17097666       -3.10920590
 C           -2.46100111       -0.79220187       -3.11252996
 C           -0.26205098       -0.44173546       -4.19611015
 C           -1.55300950        0.05909696       -3.74101803
