   70
C70 / DATE: 7/ 1/2024 / Origin: Program Fullerene / C70 from database
 C            1.21098153       -0.13294685        5.14001704
 C            2.36687553       -0.36545909        4.29502649
 C            2.18119935       -1.65684869        3.65019723
 C            0.37752705       -1.32210114        5.06514254
 C            0.82847648       -2.09034749        3.91540774
 C           -1.00225280       -0.89089355        5.12217715
 C            0.35805202        1.01281233        4.87624929
 C           -1.01845207        0.55902158        4.97166896
 C            0.70125437        1.91477606        3.87401142
 C            2.69501338        0.59609585        3.25568547
 C            1.93831729        1.74945925        3.11823649
 C            2.58919249       -1.51769145        2.27462444
 C            3.04410611       -0.15849950        2.06703484
 C            1.81020260       -2.07737564        1.27624056
 C           -0.03677955       -2.31281526        2.83855402
 C            0.46587959       -2.37559960        1.52949910
 C           -1.93014616       -1.44030227        4.15594337
 C           -1.41250679       -2.20286703        3.02948846
 C           -1.94741280        0.88164905        3.89971919
 C           -2.67968508       -0.32872197        3.60135148
 C           -0.31936010        2.37248452        2.94398601
 C           -1.52493291        1.68265909        2.83957089
 C            1.71623150        2.28910611        1.78740008
 C            0.35973478        2.80015069        1.73357963
 C            2.84060080        0.38808660        0.80155249
 C            2.21989877        1.63260371        0.66576056
 C            2.15983418       -1.75569339       -0.02252271
 C            2.73394527       -0.50386946       -0.26377468
 C            1.45396042       -2.35920211       -1.04473369
 C           -0.42658053       -2.44645355        0.44478686
 C            0.08082669       -2.52648374       -0.85731471
 C           -2.25437287       -1.87878297        1.89423363
 C           -2.93071966       -0.63761709        2.21342507
 C           -1.74088225       -2.00771344        0.60825953
 C           -2.11049565        1.53241271        1.57696357
 C           -2.84216350        0.37381760        1.27492638
 C           -0.31371687        2.73378514        0.52325136
 C           -1.64549866        2.32299923        0.51863423
 C            1.68639988        1.96282280       -0.58136195
 C            0.43799621        2.59426093       -0.64371528
 C            2.67677113        0.01136656       -1.55683152
 C            2.16922345        1.30307831       -1.71158486
 C            1.94520881       -2.17604422       -2.32811622
 C            2.58383955       -0.90323881       -2.60541638
 C            1.09536395       -2.50490642       -3.45078477
 C           -0.78346573       -2.27349703       -1.92835835
 C           -0.33258302       -2.51736543       -3.22242724
 C           -2.31195164       -1.23254487       -0.40546283
 C           -2.91079982       -0.01742680       -0.05312053
 C           -1.88980558       -1.44439989       -1.71970376
 C           -2.29657048        2.22503728       -0.70699225
 C           -3.00058061        0.99078992       -0.99263215
 C           -0.20105457        2.73119075       -1.87551906
 C           -1.58679329        2.59836196       -1.92063494
 C            1.75455065        1.75101571       -2.96234112
 C            0.53782882        2.53833166       -3.03989471
 C            2.15849579       -0.46813459       -3.92294992
 C            1.36971129       -1.54571035       -4.50575891
 C            1.78391178        0.85632274       -4.10747799
 C           -0.95269673       -1.82378491       -4.33377119
 C            0.10600435       -1.24726445       -5.15240085
 C           -2.33043907       -0.58349280       -2.73436079
 C           -2.80136080        0.67577955       -2.38829173
 C           -2.20228576        1.84657035       -3.00348498
 C           -1.91105561       -0.77902962       -4.04633182
 C           -0.14890368        2.18227472       -4.27224944
 C            0.65452889        1.18774344       -4.96416809
 C           -0.23749861        0.13600005       -5.42079053
 C           -1.51197224        1.68777102       -4.19598151
 C           -1.54616928        0.38448821       -4.84134407
