   70
C70 / DATE: 7/ 1/2024 / Origin: Program Fullerene / C70 from database
 C            1.27574789       -0.11466434        4.04309207
 C            2.38470599       -0.30569814        3.12406177
 C            2.34397737       -1.69233660        2.70051866
 C            0.41522161       -1.28370235        3.94049738
 C            1.00425323       -2.18092164        2.97547257
 C           -0.93148919       -0.82433282        3.71149752
 C            0.44555356        1.06888685        3.90784460
 C           -0.92960797        0.63031639        3.74713890
 C            0.90963405        2.12450071        3.14305533
 C            2.67753238        0.68901075        2.19229674
 C            2.12977490        1.96087274        2.36629045
 C            3.28809866        0.34713825        0.97964399
 C            2.93685183       -2.03905000        1.50040856
 C            3.49835825       -0.99333260        0.66062673
 C            2.24504453       -2.96670069        0.62470096
 C            0.23226899       -2.65981659        1.91926097
 C            0.89263841       -3.23918082        0.83526061
 C           -1.72372477       -1.45648541        2.76214534
 C           -1.13235629       -2.32268885        1.81852670
 C           -2.91826443       -0.81666748        2.45524800
 C           -1.79878856        1.31624477        2.89676520
 C           -2.94489061        0.63784117        2.47822117
 C           -0.02909869        2.87524549        2.33050193
 C           -1.33961256        2.42731511        2.17368861
 C            2.05626265        2.88076124        1.24606008
 C            0.69310483        3.37847496        1.17053404
 C            3.40433249        1.29353853       -0.03663108
 C            2.72838061        2.57478304        0.07801088
 C            3.30608564        0.86125930       -1.42364032
 C            3.37037829       -1.42209155       -0.72611571
 C            2.72822660       -2.72370208       -0.72501659
 C            3.04749831       -0.47995694       -1.70107417
 C            1.93347140       -3.08615303       -1.79775161
 C            0.15413825       -3.80575784       -0.19058544
 C            0.70510357       -3.81614977       -1.53621662
 C           -1.88806046       -2.79971758        0.73021607
 C           -1.25299170       -3.48869298       -0.29704805
 C           -3.69856759       -1.26330479        1.32837871
 C           -3.08439934       -2.17387938        0.39475274
 C           -3.68623257        1.08763184        1.31270356
 C           -4.13105615       -0.09021981        0.58813905
 C           -2.06771391        2.90737282        1.08657985
 C           -3.21460137        2.16912337        0.59041567
 C            0.04011667        3.44782297       -0.05862491
 C           -1.35368306        3.43874762       -0.06713387
 C            2.09497842        2.85627747       -1.19716783
 C            2.62621423        1.90714466       -2.16456323
 C            0.74729374        3.21605701       -1.24454001
 C            1.86499440        1.56566085       -3.26843414
 C            2.22255182       -0.83301733       -2.77948858
 C            1.65580552       -2.10764932       -2.83495483
 C            1.62469160        0.16226512       -3.55479137
 C           -0.31664603       -3.31490831       -2.43950429
 C           -1.50506557       -3.05913129       -1.66477801
 C            0.25063902       -2.22499268       -3.19348663
 C           -3.21796729       -1.60921779       -0.94018439
 C           -3.72038776       -0.26061111       -0.79629688
 C           -2.21702660       -1.88100931       -1.86618776
 C           -3.05685928        2.04101799       -0.84935347
 C           -2.07249449        3.02457517       -1.26121568
 C           -3.05490961        0.77364835       -1.43361272
 C            0.05624921        3.08891775       -2.44857088
 C            0.62930809        2.28684298       -3.51589611
 C           -1.36640221        2.80696281       -2.42998564
 C            0.22095636        0.01419540       -3.90816630
 C           -0.48111821       -1.05749475       -3.37232844
 C           -1.62569888       -0.82208464       -2.58179653
 C           -2.14196821        0.48233445       -2.44773389
 C           -0.37990642        1.32398666       -3.93074005
 C           -1.55885358        1.54854599       -3.12893938
