   70
C70 / DATE: 7/ 1/2024 / Origin: Program Fullerene / C70 from database
 C            1.46401645        0.15182062        4.82589622
 C            0.68269506       -1.06423933        4.71218085
 C            1.56383704       -2.07435659        4.17353924
 C            2.63928268       -0.00480162        3.98233241
 C            2.73708357       -1.40000397        3.63056365
 C            2.54473036        0.97053740        2.91521041
 C            0.67210793        1.22886698        4.26848590
 C            1.47610940        1.88869552        3.25909472
 C           -0.53861697       -0.75304677        3.98156879
 C           -0.60780188        0.69006400        3.84595381
 C           -0.91322348       -1.55529215        2.90283913
 C            1.04927696       -2.92257473        3.12447251
 C           -0.27853990       -2.79307250        2.72586796
 C            2.82783642       -1.76071548        2.22646605
 C            2.05545435       -2.97402360        2.08035201
 C            2.66458866        0.57630639        1.58096813
 C            2.71134724       -0.78413560        1.23908636
 C            2.27504782        1.49314439        0.60804154
 C            0.80134751        2.49043115        2.20967978
 C            1.44386587        2.55660539        0.97921765
 C           -1.16289938        1.23107365        2.69528546
 C           -0.58576568        2.39565590        2.19656256
 C           -1.63182688       -0.98103080        1.84142486
 C           -1.84977790        0.40104231        1.80499457
 C           -2.02176840       -1.77084560        0.75913155
 C           -0.65280219       -3.58241214        1.64965811
 C           -1.70998096       -3.12480446        0.77393502
 C            1.61698984       -3.33982714        0.81756582
 C            0.41525958       -4.04139230        0.78075670
 C            2.32455568       -1.18556474       -0.04529805
 C            1.94178333       -2.51709658       -0.26911198
 C            2.34781134        1.12334752       -0.73069044
 C            2.20144229       -0.22722876       -1.06111409
 C            2.11752159        2.10059351       -1.69387925
 C            0.85687260        3.33642523       -0.01418812
 C            1.40881929        3.30100386       -1.28968717
 C           -1.26019221        3.06656307        1.19378055
 C           -0.47813230        3.71183578        0.15223521
 C           -2.43818945        0.98530432        0.67645012
 C           -2.34545758        2.37134124        0.53143647
 C           -2.42862348       -1.16204100       -0.43284510
 C           -2.78028815        0.19119882       -0.42494733
 C           -2.21062022       -1.79489146       -1.66592283
 C           -1.52845237       -3.82281107       -0.48354068
 C           -0.17748253       -4.36829161       -0.49452030
 C           -1.70788712       -3.08592319       -1.71229793
 C            1.54670192       -2.90909749       -1.54587145
 C            0.48495987       -3.89209291       -1.68902991
 C           -0.53633462       -3.30773164       -2.53434665
 C            1.68406082       -0.58212652       -2.31495594
 C            1.33771523       -1.90270052       -2.56871311
 C            0.04743723       -2.15215219       -3.18701877
 C            1.58895251        1.70372267       -2.98194780
 C            1.11644840        0.40553995       -3.12133354
 C            0.63211002        3.76688585       -2.42638044
 C            0.83316455        2.82202543       -3.51232346
 C           -1.35268845        3.84954886       -1.00112966
 C           -2.50908603        2.98625576       -0.77283393
 C           -0.79633569        3.96606922       -2.26933319
 C           -3.16105392        0.79199600       -1.63132222
 C           -3.03221892        2.22945970       -1.80705975
 C           -2.01149617       -0.99997694       -2.78659502
 C           -0.76353834       -1.04907333       -3.41957891
 C           -0.12938863        0.15337576       -3.71741980
 C           -2.76082486        0.16133993       -2.87666658
 C           -0.45238439        2.56418659       -4.11940763
 C           -1.45305622        3.34230470       -3.40342076
 C           -2.60057060        2.48333581       -3.17087781
 C           -0.92545919        1.19700213       -4.18220858
 C           -2.31846830        1.20046931       -3.78721596
