   70
C70 / DATE: 7/ 1/2024 / Origin: Program Fullerene / C70 from database
 C            1.38017691       -0.05026745        4.04784775
 C            2.56678199       -0.26687845        3.23867111
 C            2.53050088       -1.64964484        2.78254240
 C            0.52090590       -1.21238036        3.89289533
 C            1.17828824       -2.13337294        2.98588045
 C           -0.80968347       -0.74410682        3.55320225
 C            0.57717011        1.13376539        3.81575032
 C           -0.78529739        0.70794657        3.53690099
 C            1.11947712        2.17372903        3.08041768
 C            3.00779877        0.73631914        2.37370334
 C            2.37577967        1.97895263        2.36764326
 C            3.83863904        0.39965953        1.30931603
 C            3.19681333       -1.99385500        1.61795939
 C            4.04789277       -1.00172912        0.99027348
 C            2.46739783       -2.68127576        0.56334945
 C            0.45458913       -2.62596623        1.90520071
 C            1.10629688       -2.94049288        0.70721325
 C           -1.51885798       -1.40101780        2.55595414
 C           -0.93450344       -2.49857798        1.91276543
 C           -2.56494921       -0.71994476        1.93509494
 C           -1.53813474        1.37688420        2.57239773
 C           -2.56099240        0.67823341        1.91886158
 C            0.24850831        2.96639283        2.23472384
 C           -1.08154558        2.60052746        2.06047690
 C            2.31260101        2.74656063        1.13149815
 C            1.01305490        3.40111055        1.07652949
 C            3.72607114        1.12742125        0.05417078
 C            2.87976217        2.23189202       -0.03068612
 C            3.93234243       -1.15774172       -0.44920225
 C            2.93986179       -2.17712756       -0.71305990
 C            3.73549478        0.15336686       -1.02846099
 C            2.00576493       -1.95927883       -1.71767856
 C            0.34563453       -3.16146293       -0.44282170
 C            0.80750562       -2.67273550       -1.67018163
 C           -1.66076528       -3.18451427        0.94709990
 C           -0.99171170       -3.52421103       -0.29502399
 C           -3.41005310       -1.41805210        1.07731347
 C           -3.00068230       -2.73324550        0.62484240
 C           -3.99928389       -0.73205581       -0.05996123
 C           -3.41870992        1.35403227        1.05551225
 C           -3.97638385        0.65024102       -0.08483925
 C           -1.77272996        3.21431207        1.02275423
 C           -3.04189017        2.66935050        0.58907826
 C            0.36194594        3.55819144       -0.14571755
 C           -1.03256146        3.62059034       -0.16194387
 C            2.32219828        2.55976167       -1.26377374
 C            1.03735661        3.24191940       -1.32291075
 C            2.82490188        0.29984438       -2.06700043
 C            2.09810691       -0.80958155       -2.51520895
 C            2.35470768        1.58049132       -2.33880398
 C            1.20264631       -0.64089105       -3.56937167
 C           -0.03635367       -2.65356812       -2.77485806
 C            0.16147363       -1.62949865       -3.78124482
 C           -1.93130278       -3.31600596       -1.38676536
 C           -3.15261802       -2.77250572       -0.82005231
 C           -3.59386186       -1.45757433       -1.25083663
 C           -1.46641247       -2.78726397       -2.58087408
 C           -1.09930808       -0.91718380       -3.93690214
 C           -2.87428421       -0.80277520       -2.24948915
 C           -2.07750984       -1.56997524       -3.09454694
 C           -3.46687513        1.31088993       -1.27266259
 C           -3.04024066        2.63311567       -0.86639119
 C           -1.75429791        3.11402048       -1.31921039
 C           -2.68350795        0.58333812       -2.16621447
 C            0.29371603        2.68981302       -2.44577865
 C            1.16234296        1.76204639       -3.14925265
 C            0.60372414        0.66500898       -3.78244037
 C           -0.83651539        0.49049546       -3.72940473
 C           -1.05630964        2.39698445       -2.28083718
 C           -1.57009710        1.18955084       -2.77343238
