   70
C70 / DATE: 7/ 1/2024 / Origin: Program Fullerene / C70 from database
 C            1.25026808        0.19329383        4.77928844
 C            2.53504747        0.05089974        4.13168460
 C            2.57608577       -1.27772026        3.54476630
 C            0.45686855       -0.98042147        4.43816190
 C            1.22322116       -1.78073830        3.50397575
 C           -0.85412915       -0.52268374        4.03466179
 C            0.45570125        1.36591168        4.48095331
 C           -0.89631865        0.91666986        4.20534701
 C            0.85445831        2.23475168        3.38670832
 C            2.91803526        0.99293012        3.09071421
 C            2.04918260        2.01133955        2.69821480
 C            3.28713765       -1.17348119        2.29617785
 C            3.61873535        0.22586853        2.07401392
 C            2.84242726       -1.90161582        1.20667480
 C            0.66204247       -2.09833585        2.26686689
 C            1.48772424       -2.28433855        1.14997817
 C           -1.42673325       -1.03943623        2.88303885
 C           -0.71227216       -1.93993975        2.08232551
 C           -2.42620155       -0.28770453        2.28282485
 C           -1.42036154        1.71366611        3.10543980
 C           -0.34750044        2.57208325        2.63604101
 C           -2.22163170        1.08509950        2.15833852
 C           -0.24220219        2.83112791        1.27367612
 C            2.19583110        2.56116987        1.42996010
 C            1.02088573        3.06081431        0.73461737
 C            3.66175464        0.69031528        0.75775660
 C            3.05089296        1.90566172        0.44838715
 C            3.51162410       -1.63717242        0.02592577
 C            3.84793325       -0.25026874       -0.25655915
 C            3.04561419       -2.24575495       -1.19192344
 C            0.90154566       -2.62219983       -0.08152366
 C            1.70195450       -2.77810421       -1.20865469
 C           -1.29712720       -2.36040062        0.88628010
 C           -0.48597768       -2.53651246       -0.24408653
 C           -3.21066273       -0.92672003        1.34191291
 C           -2.66017899       -2.12046009        0.73122018
 C           -3.79233934       -0.14004988        0.27378686
 C           -2.32804725        1.65764538        0.89154624
 C           -1.28890659        2.47111891        0.42067072
 C           -3.24178509        1.10780160       -0.01295278
 C           -1.13126976        2.65399009       -0.95127278
 C            1.23443911        2.87476912       -0.68947714
 C            2.45338490        2.10835091       -0.86690930
 C            0.14927213        2.59140413       -1.49900702
 C            3.37930220        0.03445025       -1.60305839
 C            3.13450291       -1.24105845       -2.23769506
 C            2.48448729        1.08104022       -1.80676644
 C            1.15361253       -2.45727083       -2.50836854
 C            1.95779548       -1.37623001       -3.05550940
 C           -1.04216469       -2.54435911       -1.54052285
 C           -0.22287983       -2.37080847       -2.66036201
 C           -3.27436018       -2.26152026       -0.56846299
 C           -4.07392587       -1.06742417       -0.80604527
 C           -2.42089955       -2.45204800       -1.71580566
 C           -3.84189101       -0.63977584       -2.16968531
 C           -2.94517943       -1.61424656       -2.78106707
 C           -3.29765510        1.60138041       -1.31629171
 C           -2.22839956        2.46519523       -1.77934147
 C           -3.66214832        0.71609888       -2.41636241
 C           -2.00090101        2.18654034       -3.18595230
 C           -2.91497462        1.13016746       -3.58895772
 C            0.36083470        1.86106466       -2.66512969
 C            1.42182139        0.94234397       -2.71869168
 C            1.29299895       -0.23622797       -3.47838779
 C           -0.66310172        1.80808654       -3.60464364
 C           -0.69081202       -1.60805719       -3.73284474
 C           -2.08998130       -1.22426749       -3.80325064
 C           -2.14824141        0.13644995       -4.31458784
 C            0.10859941       -0.47175521       -4.16223590
 C           -0.78486167        0.62960749       -4.42954372
