   70
C70 / DATE: 7/ 1/2024 / Origin: Program Fullerene / C70 from database
 C            1.31605288        0.00477606        4.42813717
 C            2.58652874       -0.29125424        3.81680185
 C            2.59321292       -1.70841729        3.49451065
 C            0.49126502       -1.19577958        4.34857155
 C            1.21653414       -2.16741086        3.56199351
 C           -0.81926442       -0.77363420        3.89963412
 C            0.52075326        1.08425066        3.88269149
 C           -0.84878147        0.66469978        4.07978136
 C            0.86470657        1.66937440        2.65730460
 C            2.94830080        0.41594704        2.60830448
 C            2.02050804        1.25705108        1.98214311
 C            3.31554511       -1.86418629        2.24359201
 C            3.70095079       -0.52905256        1.80530986
 C            2.82787530       -2.77163281        1.31027307
 C            0.63206873       -2.69601007        2.41474634
 C            1.47076392       -3.27264658        1.46160005
 C           -1.34513119       -1.30428233        2.72246608
 C           -0.68315272       -2.35090891        2.06814511
 C           -2.34771045       -0.58539900        2.05816453
 C           -1.82464632        1.37342739        3.41625518
 C           -2.76358221        0.62748118        2.60313988
 C           -0.13044654        2.37363163        1.96861860
 C           -1.38982583        2.46170871        2.56725589
 C            0.00202860        2.61515006        0.59118512
 C            2.16327485        1.52352749        0.61896292
 C            1.12600376        2.13032365       -0.09191492
 C            3.83730152       -0.26881115        0.45334092
 C            3.20424954        0.92199890       -0.08409381
 C            3.04896978       -2.53070547       -0.10591873
 C            3.62868864       -1.33855132       -0.51202429
 C            0.96431081       -3.58533497        0.13900287
 C            1.89984394       -3.04647736       -0.83606492
 C           -1.24843473       -2.88285135        0.91263665
 C           -0.39354921       -3.48016362       -0.10036159
 C           -2.68879029       -0.91193149        0.73982940
 C           -2.29424506       -2.13926582        0.23089454
 C           -3.17037802        0.06669557       -0.13913283
 C           -3.39893249        1.60854996        1.75058187
 C           -2.54328002        2.79113616        1.76413586
 C           -3.63846407        1.27792325        0.36240171
 C           -1.04385890        3.23091125       -0.11761041
 C           -2.33832209        3.17804845        0.39187504
 C           -3.35865503        2.49015762       -0.37844123
 C           -0.92338658        3.43290540       -1.48830329
 C            1.21224435        2.23202189       -1.48827121
 C            0.24383239        2.93821192       -2.18903300
 C            3.06343442        0.70995269       -1.50704273
 C            3.17405029       -0.72060955       -1.74130885
 C            2.08569742        1.40572494       -2.19967963
 C            1.41606719       -2.35829208       -1.95083542
 C            2.19577239       -1.33530009       -2.51669861
 C           -0.84473337       -3.00794965       -1.39430885
 C           -2.08674363       -2.27937928       -1.19817560
 C            0.07243007       -2.52772575       -2.32474911
 C           -2.94303880       -0.04965979       -1.51692444
 C           -2.37337504       -1.21300895       -2.04415778
 C           -3.17486431        2.39473523       -1.74450288
 C           -2.08515380        3.15970194       -2.32162586
 C           -3.11563727        1.06797052       -2.33836859
 C           -0.18621340        2.45562667       -3.49502390
 C           -1.63742463        2.45676472       -3.50691450
 C           -2.34188432        1.18488895       -3.56152881
 C            1.66926760        0.86611387       -3.41422932
 C            1.68474816       -0.58088733       -3.56601017
 C            0.47649361        1.37722234       -4.06278083
 C           -0.43855373       -1.84107802       -3.41964582
 C           -1.72247485       -1.16846718       -3.27808244
 C           -1.66585087        0.07142897       -4.03563051
 C            0.43610279       -0.97463024       -4.17342531
 C           -0.30109266        0.23165482       -4.51146724
