   70
C70 / DATE: 7/ 1/2024 / Origin: Program Fullerene / C70 from database
 C            1.49802590        0.26867174        4.86523940
 C            0.68274334       -0.92556169        4.73775348
 C            1.33596806       -1.82076124        3.80079107
 C            2.58051779        0.17091634        3.90214210
 C            2.52476718       -1.14405975        3.29808377
 C            2.51015546        1.32381658        3.02790515
 C            0.67745649        1.40355644        4.48496365
 C            1.40338834        2.15427429        3.48039693
 C           -0.67576222       -0.51098270        4.45696586
 C           -0.64845237        0.91161574        4.15011750
 C           -1.45863021       -1.33925346        3.67465184
 C            0.55549840       -2.56067992        2.91047862
 C           -0.83636448       -2.45529853        2.96773742
 C            1.15529878       -3.03592809        1.74616291
 C            2.83602566       -1.27405279        1.95052836
 C            2.39585113       -2.42398561        1.30462393
 C            2.69806392        1.13094912        1.66035934
 C            3.10069150       -0.12610538        1.19338894
 C            2.18973180        2.07519942        0.76101409
 C            0.66688650        2.83698235        2.52790491
 C            1.21360709        2.96662051        1.19294403
 C           -1.26831177        1.38607628        2.98977931
 C           -0.74699389        2.51811429        2.36993183
 C           -2.39113259       -0.73202217        2.75029793
 C           -2.14646496        0.55874978        2.28290134
 C           -1.63372416       -2.69954595        1.77148978
 C           -2.75148663       -1.76882976        1.80716595
 C            0.34959859       -3.29783075        0.56166293
 C           -0.99995501       -2.96684638        0.55803581
 C            2.44611567       -2.50501673       -0.14288677
 C            1.15684196       -2.98980797       -0.60556037
 C            3.42869346       -0.26582355       -0.15062981
 C            3.07362908       -1.49369773       -0.84722078
 C            2.35697194        1.88603198       -0.61203950
 C            3.15748701        0.83673517       -1.05432449
 C            1.46047261        2.48737582       -1.50325185
 C            0.10044327        3.24924548        0.31463739
 C           -1.10584982        2.81228137        0.99398827
 C            0.23111113        2.94830310       -1.02772884
 C           -2.58496908        0.91376567        0.99898068
 C           -1.98620899        1.97610241        0.31432856
 C           -3.33389310       -1.39061563        0.61482014
 C           -3.39769489        0.02619239        0.29897266
 C           -1.61461106       -2.58982355       -0.64120353
 C           -2.89876903       -2.05197580       -0.59523521
 C            0.54766045       -2.39232609       -1.70358654
 C           -0.84305564       -2.42321024       -1.79902023
 C            2.55510170       -1.12141599       -2.15012462
 C            2.92536497        0.26246252       -2.36872967
 C            1.28803122       -1.55140111       -2.54380787
 C            1.59468327        2.23987514       -2.86887340
 C            2.20283841        0.99142694       -3.29574194
 C            0.45178274        2.47606357       -3.74046575
 C           -0.92170660        2.64923270       -1.74297871
 C           -1.97424618        1.99293115       -1.08873707
 C           -0.84837684        2.67011393       -3.12830129
 C           -3.49108441        0.12777249       -1.14596213
 C           -3.35771042       -1.22014927       -1.68573638
 C           -2.86237622        1.17841775       -1.80529054
 C           -1.44717454       -1.99570239       -2.97974656
 C           -2.76347289       -1.37487687       -2.92517245
 C            0.65301891       -0.89223283       -3.59946029
 C            1.20318627        0.29782765       -4.08833744
 C            0.34118846        1.33252983       -4.63091692
 C           -0.64805328       -1.25875344       -3.94389882
 C           -1.80888952        1.91595378       -3.90020187
 C           -2.76980609        1.09629007       -3.19413707
 C           -2.73768621       -0.22185021       -3.80317829
 C           -1.06727806        1.05190912       -4.81022289
 C           -1.52870729       -0.30395932       -4.59843596
