   70
C70 / DATE: 7/ 1/2024 / Origin: Program Fullerene / C70 from database
 C            1.62855132        0.10700994        4.52230454
 C            0.83726803       -1.10707293        4.47500082
 C            1.44244674       -1.99594164        3.50194112
 C            2.62708336        0.02834402        3.46770257
 C            2.51473983       -1.26450232        2.83989584
 C            2.48311787        1.19608489        2.63434135
 C            0.74624061        1.21571726        4.20753383
 C            1.36255077        1.96554357        3.14135856
 C           -0.54880789       -0.73027146        4.29058802
 C           -0.58246246        0.69124881        3.97860775
 C           -1.36157053       -1.58618832        3.56778881
 C            0.62178962       -2.81104399        2.72545279
 C           -0.76552843       -2.71994010        2.86863063
 C            1.14954059       -3.30684687        1.53777051
 C            2.62606521       -1.36430818        1.45652725
 C            2.22732114       -2.56824883        0.89618804
 C            2.59809869        1.07010724        1.25103193
 C            2.62409372       -0.20361328        0.66130553
 C            2.14890114        2.14380642        0.48427720
 C            0.55349508        2.56780398        2.19609073
 C            1.18376084        2.99107219        1.04222483
 C           -1.29104205        1.13048901        2.85873445
 C           -0.79932608        2.20890102        2.10218030
 C           -2.36978336       -1.02018008        2.69146129
 C           -2.31190121        0.32591940        2.34610363
 C           -1.63730757       -3.03913301        1.74654491
 C           -2.65797583       -2.00364249        1.66118376
 C            0.26695517       -3.79567069        0.49178235
 C           -1.10531564       -3.55903285        0.57346176
 C            2.05341962       -2.67575800       -0.53450148
 C            0.96929123       -3.61395102       -0.77114258
 C            2.46422753       -0.30551020       -0.73073769
 C            2.15354652       -1.53929354       -1.32551586
 C            2.31440903        2.10064264       -0.89819655
 C            2.48405311        0.85422206       -1.51425615
 C            1.96490139        3.22847660       -1.64436622
 C            0.46587837        3.84092521        0.22669688
 C            0.96523405        4.12068179       -1.10132494
 C           -1.54968982        2.70055100        1.01996674
 C           -0.96316587        3.61592391        0.14039320
 C           -3.02368956        0.74576148        1.23277781
 C           -2.64079573        1.96930877        0.55868287
 C           -3.09671544       -1.57662264        0.40878212
 C           -3.39929129       -0.22870010        0.21770355
 C           -1.85596938       -3.44660298       -0.59272296
 C           -2.83290773       -2.37310720       -0.70327242
 C            0.24319780       -3.51230692       -1.94610087
 C           -1.20405750       -3.58531583       -1.88134006
 C            1.63280774       -1.58612774       -2.62252566
 C            0.58951955       -2.47174511       -2.89861573
 C            2.36672707        0.72584198       -2.89675387
 C            1.72364668       -0.45612768       -3.42505774
 C            1.66766256        3.10831977       -3.05518368
 C            1.87861889        1.83394347       -3.69538410
 C           -0.17105072        4.09707546       -2.00694323
 C           -1.28185242        3.52428078       -1.27552082
 C            0.26135484        3.44952923       -3.22338546
 C           -2.80197340        1.75954121       -0.87440340
 C           -3.17516674        0.37893749       -1.08631512
 C           -1.91272121        2.37372643       -1.74190762
 C           -2.65518584       -1.74595146       -2.00502951
 C           -1.74859946       -2.56906421       -2.76760173
 C           -0.64619452       -1.92260784       -3.43115091
 C           -2.55046533       -0.36033433       -2.07998552
 C            0.50738821       -0.00452983       -4.08200961
 C            0.60105950        1.42139475       -4.25557454
 C           -0.41804998        2.23994227       -3.64313212
 C           -1.34478600        1.63188335       -2.79015855
 C           -0.68878480       -0.55446578       -3.64944911
 C           -1.55682964        0.24080206       -2.87345245
