   70
C70 / DATE: 7/ 1/2024 / Origin: Program Fullerene / C70 from database
 C            1.26914963       -0.06914120        4.06575118
 C            2.37562736       -0.27786909        3.14957437
 C            2.27162568       -1.63407332        2.63271278
 C            0.40964787       -1.24049110        4.00279394
 C            0.98839972       -2.17014141        3.06187248
 C           -0.94281100       -0.79095421        3.77505468
 C            0.43797573        1.10830968        3.90669460
 C           -0.93567317        0.66358823        3.74859013
 C            0.90126838        2.15238356        3.12624585
 C            2.76394537        0.74745872        2.29272732
 C            2.13666621        1.99298764        2.36837448
 C            3.49141812        0.41980147        1.15371017
 C            2.72824100       -1.91406218        1.34571521
 C            3.48281678       -0.95480364        0.67271150
 C            2.10436749       -2.92597403        0.61675078
 C            0.17394783       -2.78872376        2.12159967
 C            0.80597098       -3.41669501        1.05226126
 C           -1.74532333       -1.46349146        2.85958885
 C           -1.18732233       -2.45199907        2.03120689
 C           -2.92056108       -0.82166395        2.47175641
 C           -1.79428834        1.31233008        2.86170605
 C           -2.95642827        0.63215521        2.51148059
 C           -0.03794231        2.87286331        2.28760863
 C           -1.29542650        2.32679063        2.02608458
 C            2.02551548        2.81839221        1.17416265
 C            0.72721043        3.47002510        1.20868076
 C            3.44698600        1.29579387       -0.00599873
 C            2.53662795        2.34874038       -0.03316369
 C            3.46739337       -0.91349954       -0.78217086
 C            3.63902518        0.47093325       -1.18547789
 C            2.08891608       -2.86654579       -0.83736363
 C            2.59077623       -1.73899373       -1.48070362
 C            0.05176621       -3.80265282       -0.12605499
 C            0.85463048       -3.47990450       -1.29583241
 C           -1.96346401       -3.00761715        1.01308641
 C           -1.31902269       -3.59997387       -0.14734921
 C           -3.64561365       -1.25753362        1.29071340
 C           -3.13539406       -2.29818967        0.53427937
 C           -3.74134515        1.09017245        1.39033265
 C           -4.12809268       -0.07136060        0.60617954
 C           -1.98200995        2.70925400        0.86093084
 C           -3.15272535        2.05466687        0.49304811
 C            0.08989694        3.76109838        0.01811363
 C           -1.30987673        3.40656076       -0.14100097
 C            1.94257070        2.72697109       -1.24213883
 C            0.76409356        3.47463077       -1.23650925
 C            3.10836309        0.88994780       -2.39133414
 C            2.35874303        2.13295987       -2.43302167
 C            2.02307710       -1.30042798       -2.68291326
 C            2.40491231       -0.07219226       -3.22102760
 C            0.24472203       -2.99745399       -2.44346551
 C            0.88652499       -1.93093750       -3.19248088
 C           -1.95410223       -3.05349198       -1.33844443
 C           -2.97119518       -2.11439992       -0.89946380
 C           -1.18834692       -2.74136704       -2.45205513
 C           -3.71788761        0.16166566       -0.76864889
 C           -3.26400422        1.53395903       -0.86184828
 C           -3.01431282       -0.82813481       -1.44175561
 C           -1.51040504        2.99904464       -1.52270843
 C           -0.26365071        3.21162071       -2.23399341
 C           -2.27605232        1.86462840       -1.78136075
 C            1.42324975        2.03692049       -3.54101865
 C            1.45302861        0.66954111       -4.03080607
 C            0.03734358        2.40296664       -3.31791456
 C           -0.16921011       -1.13174693       -3.79786594
 C           -1.39960673       -1.46354786       -3.10786927
 C           -2.11251078       -0.46607313       -2.44522930
 C           -1.77782158        0.88151021       -2.64301572
 C            0.08501505        0.19217839       -4.11169549
 C           -0.77902948        1.22327752       -3.55839891
