   70
C70 / DATE: 7/ 1/2024 / Origin: Program Fullerene / C70 from database
 C            1.66445219        0.08562143        5.18457527
 C            0.83893767       -1.11150240        5.21598916
 C            1.49771177       -2.12052307        4.40931427
 C            2.68597610       -0.10894377        4.17119942
 C            2.66564187       -1.50388916        3.79710302
 C            2.48779149        0.88632736        3.12940534
 C            0.82553824        1.18809143        4.75466420
 C            1.38193514        1.73536649        3.52707814
 C           -0.52117827       -0.72532292        4.88350509
 C           -0.54814909        0.72386813        4.73794027
 C           -1.26605884       -1.51970497        4.01415767
 C            0.74637275       -2.78855087        3.35671155
 C           -0.61834804       -2.57541812        3.24159218
 C            2.63473214       -1.82316023        2.38799773
 C            1.55993429       -2.76584621        2.15693514
 C            2.57888837        0.51687650        1.78921575
 C            2.81305724       -0.81904936        1.44401543
 C            2.00159117        1.35861511        0.83084053
 C            0.50634940        2.18189725        2.54102876
 C            0.91198518        2.14972288        1.20304540
 C           -1.40813777        1.29883090        3.81394676
 C           -0.85701550        2.21218998        2.82493979
 C           -2.27406252       -0.90666991        3.16511669
 C           -2.39025484        0.47352743        3.12697046
 C           -1.22578453       -2.60145097        1.92111414
 C           -2.32391152       -1.65450880        1.92094048
 C            0.96088613       -2.74386408        0.89914173
 C           -0.43086654       -2.70303145        0.77625962
 C            2.59410100       -1.17255963        0.12398491
 C            1.71370313       -2.22431552       -0.14480699
 C            2.20985284        1.07245325       -0.52469776
 C            2.72787280       -0.18367863       -0.83649536
 C            1.50913083        1.79559632       -1.50377603
 C            0.03128918        2.58948821        0.21761322
 C            0.46554110        2.64295277       -1.10533333
 C           -1.80070108        2.25875898        1.72963326
 C           -2.68619150        1.12085708        1.86105193
 C           -1.34537524        2.54977873        0.45770751
 C           -2.61899246       -1.00814924        0.72846706
 C           -2.92376643        0.35990254        0.71868487
 C           -0.98321414       -2.31415031       -0.45460204
 C           -2.19162226       -1.60793636       -0.45261517
 C            1.21887057       -2.33653355       -1.43512607
 C           -0.17068715       -2.29627788       -1.60057598
 C            2.74353350       -0.60730735       -2.15333129
 C            2.03549829       -1.83917490       -2.44043481
 C            1.68728356        1.47413164       -2.86161653
 C            2.40115536        0.32724250       -3.19838468
 C            0.94161940        2.12294812       -3.84871659
 C           -0.45550833        3.09261530       -2.04687004
 C           -0.16941925        2.95606922       -3.45551906
 C           -2.18267832        2.22138763       -0.60124857
 C           -2.91459084        1.02921358       -0.51073144
 C           -1.84706547        2.74497095       -1.84144936
 C           -2.69929288       -1.11282881       -1.64168731
 C           -3.13406260        0.26953501       -1.65699511
 C           -0.72173877       -1.92524660       -2.83911795
 C           -1.99690491       -1.37127922       -2.88023913
 C            1.52452712       -1.75215520       -3.78601262
 C            1.97787317       -0.48325078       -4.32921200
 C            0.09375730       -1.81207975       -3.96600063
 C            0.50555473        1.38751804       -5.02744522
 C            0.93002237        0.01351407       -5.19359479
 C           -0.23703496       -0.83738721       -4.99615098
 C           -1.36611120        2.43005801       -4.10031021
 C           -2.31585476        2.10228111       -3.05231674
 C           -2.83730309        0.81962501       -2.96834028
 C           -2.27531962       -0.25701366       -3.77490718
 C           -0.94692084        1.39452212       -5.02510543
 C           -1.38884384        0.02640579       -4.80812005
