   70
C70 / DATE: 7/ 1/2024 / Origin: Program Fullerene / C70 from database
 C            1.33099155       -0.12800784        4.03622808
 C            2.55315827       -0.32219717        3.27634178
 C            2.57243508       -1.71392549        2.84719506
 C            0.48900371       -1.29543041        3.82859412
 C            1.22781790       -2.23927873        3.01163584
 C           -0.80264275       -0.83601150        3.35773468
 C            0.52833388        1.05240489        3.78407781
 C           -0.80022923        0.61439600        3.39245834
 C            1.10374955        2.11794242        3.11481933
 C            2.99481225        0.68289656        2.41255476
 C            2.37911139        1.93390419        2.43214655
 C            3.78589812        0.34912286        1.31515415
 C            3.29695492       -2.06850541        1.71985120
 C            4.05796850       -1.04651168        1.02611511
 C            2.67373179       -2.91292569        0.71445296
 C            0.59137574       -2.83124917        1.92440012
 C            1.36961673       -3.37034390        0.89136525
 C           -1.38689679       -1.47165205        2.26790222
 C           -0.77988351       -2.60816643        1.73222338
 C           -2.34497039       -0.78309393        1.51707739
 C           -1.48936020        1.29377466        2.39374224
 C           -2.46500841        0.60543470        1.68080124
 C            0.26860302        2.94788089        2.26507801
 C           -1.00047090        2.50657428        1.89182147
 C            2.33080499        2.71305461        1.20519338
 C            1.13355287        3.53606846        1.26041965
 C            3.56194072        1.02524161        0.04520437
 C            2.69581740        2.10821013        0.00400885
 C            3.88487123       -1.24467171       -0.40449103
 C            3.05109240       -2.40978990       -0.59680068
 C            3.45007175        0.00843945       -0.98129404
 C            2.08153161       -2.39612530       -1.59362025
 C            0.73837441       -3.90906999       -0.22497633
 C            1.10973106       -3.39260458       -1.53291076
 C           -1.46153434       -3.32653347        0.76170462
 C           -0.69765435       -4.08064330       -0.20801253
 C           -3.02174048       -1.44701990        0.48264548
 C           -2.55918263       -2.68824630        0.05860696
 C           -3.77397023       -0.71613428       -0.42985304
 C           -3.32529196        1.34061734        0.87995820
 C           -4.07446559        0.67008112       -0.15673551
 C           -1.62524972        3.10074358        0.78784641
 C           -2.85366265        2.60444849        0.34731775
 C            0.56510956        3.96177610        0.07258452
 C           -0.88063436        3.92777686       -0.05572022
 C            1.89366787        2.29600529       -1.12262496
 C            1.10108719        3.43794653       -1.17041063
 C            2.33353616        0.01566648       -1.80794921
 C            1.79126433       -1.19485588       -2.25626025
 C            1.61413866        1.20509900       -1.96383627
 C            0.75794148       -1.16289739       -3.18533870
 C           -0.09463310       -3.29319282       -2.33914924
 C           -1.20455494       -3.75863142       -1.53241276
 C           -2.35947394       -2.89770570       -1.36788818
 C           -0.27532204       -2.18349961       -3.14818617
 C           -3.45157490       -0.83517885       -1.84325237
 C           -2.55148627       -1.82208774       -2.23313962
 C           -1.56838682       -1.50952665       -3.17490053
 C           -3.89593835        1.41564770       -1.39111621
 C           -3.18499278        2.63628826       -1.07350523
 C           -3.33002320        0.51200760       -2.37805919
 C           -1.16467132        3.93224768       -1.47918267
 C            0.05749027        3.54273808       -2.16533087
 C           -2.24297162        3.10155771       -1.97590443
 C            0.59375607        1.27533979       -2.92330321
 C            0.11564123        0.10128076       -3.49067939
 C           -1.32299829       -0.12025071       -3.53285617
 C           -2.17554245        0.87801132       -3.06788256
 C           -0.23977459        2.38566822       -2.97629641
 C           -1.67979056        2.17967127       -2.95538167
