   70
C70 / DATE: 7/ 1/2024 / Origin: Program Fullerene / C70 from database
 C            1.49137417        0.08909346        4.99727697
 C            0.71940237       -1.10744805        4.72764528
 C            1.61381615       -2.04973215        4.09398405
 C            2.70619126        0.01394288        4.19870977
 C            2.79191546       -1.31852266        3.64895085
 C            2.69173436        1.13142152        3.28075773
 C            0.72263916        1.22197610        4.51822455
 C            1.58423986        1.99829505        3.65213378
 C           -0.48956372       -0.71914133        4.01330700
 C           -0.51729395        0.73110154        3.95175403
 C           -0.88195016       -1.44923548        2.89099689
 C            1.11465515       -2.77260160        2.94991371
 C           -0.22604652       -2.65359954        2.60357272
 C            2.88088435       -1.47508235        2.20437825
 C            2.08687655       -2.63746687        1.87990869
 C            2.93687824        0.92684515        1.92194301
 C            2.79287744       -0.35938053        1.37607581
 C            2.74548981        2.02854871        1.10073274
 C            0.99105428        2.73224597        2.63378451
 C            1.79999944        3.03844919        1.54567821
 C           -0.96991585        1.34423426        2.79193615
 C           -0.37682857        2.54726199        2.40305419
 C           -1.61418542       -0.80397738        1.88140543
 C           -1.66365854        0.59203087        1.83943692
 C           -2.11221149       -1.54767696        0.80895921
 C           -0.59367360       -3.33498496        1.45809449
 C           -1.75123450       -2.88638941        0.71883571
 C            1.60859613       -2.79664488        0.58691584
 C            0.45009548       -3.55086269        0.47089788
 C            2.29749914       -0.52509336        0.07199483
 C            1.82245241       -1.77939036       -0.35321975
 C            2.53593543        1.83640589       -0.31755238
 C            2.26044334        0.56507326       -0.80179164
 C            1.20323817        3.64222688        0.37260006
 C            1.74114454        2.95317703       -0.79402172
 C           -0.98517132        3.26735861        1.38364219
 C           -0.14680177        3.95362148        0.41344444
 C           -2.17405461        1.23871769        0.71221325
 C           -2.05296477        2.62408610        0.64036559
 C           -2.59891042       -0.89539161       -0.33134448
 C           -2.49460708        0.49514006       -0.43159711
 C           -2.93179438       -1.64454149       -1.46470122
 C           -1.62339168       -3.49336818       -0.58792139
 C           -0.19350824       -3.64143461       -0.81333016
 C           -2.38303153       -2.98423104       -1.62371722
 C            1.24592501       -1.90581718       -1.62929823
 C            0.37239830       -2.97741620       -1.89002865
 C            1.61536557        0.44591563       -2.03114994
 C            1.30890379       -0.82576700       -2.51729203
 C            0.93831336        2.76000769       -1.91121234
 C            1.10069104        1.59356210       -2.65719561
 C           -0.88096309        4.00722585       -0.83278872
 C           -2.12904415        3.28269672       -0.64245252
 C           -0.26075856        3.46601089       -2.02607755
 C           -2.60670931        1.11643003       -1.68936069
 C           -2.33731332        2.47496646       -1.82302557
 C           -1.34224012        2.88361074       -2.79777075
 C           -2.91085205       -1.00508205       -2.76948423
 C           -2.56662566        0.33909213       -2.84723569
 C           -1.81045265       -3.05617460       -2.95569061
 C           -0.36215683       -3.00166356       -3.07012662
 C           -2.34769962       -1.95276539       -3.72043131
 C            0.84140268       -0.96895539       -3.82096171
 C           -0.04176967       -2.07200041       -4.12794397
 C           -1.29648894       -1.51334225       -4.61558649
 C            0.34093688        1.46514252       -3.81415980
 C           -1.01656583        1.98130444       -3.79416611
 C           -1.86814828        0.82109444       -3.96007369
 C            0.30205789        0.18938727       -4.49904640
 C           -1.09684100       -0.09251909       -4.78176844
