   70
C70 / DATE: 7/ 1/2024 / Origin: Program Fullerene / C70 from database
 C            1.26881574       -0.04559395        4.40329572
 C            2.56123079       -0.33320475        3.82874141
 C            2.55619513       -1.72195414        3.40266101
 C            0.43971321       -1.23574799        4.25809827
 C            1.18489108       -2.19660539        3.47473878
 C           -0.85471955       -0.79983356        3.77552527
 C            0.50524621        1.06719440        3.87485238
 C           -0.87959437        0.64362892        3.91962963
 C            0.95943775        1.76255546        2.74943084
 C            3.01025876        0.46124513        2.70619279
 C            2.25832800        1.54805673        2.26029609
 C            3.25156229       -1.80058031        2.12816837
 C            3.58110737       -0.44416200        1.72071616
 C            2.77622393       -2.68559117        1.17576128
 C            0.60871470       -2.74038550        2.33127736
 C            1.45732233       -3.26935324        1.36008976
 C           -1.37980514       -1.36574089        2.61513571
 C           -0.71715876       -2.43360274        1.99767911
 C           -2.38945024       -0.67749720        1.93133985
 C           -1.79932832        1.35423326        3.17524436
 C           -2.72433179        0.61424345        2.33842560
 C            0.02827529        2.49431762        1.99638485
 C           -1.31892599        2.45518202        2.36240926
 C            0.40008896        3.09394824        0.78794467
 C            2.62900936        2.10466199        1.04393981
 C            1.69271607        2.93025177        0.31097154
 C            3.52379944       -0.08061359        0.37521588
 C            3.33477479        1.26986425        0.08374531
 C            2.89911605       -2.34188343       -0.22716265
 C            3.25971642       -1.04946241       -0.60328918
 C            0.93870131       -3.60609522        0.04707076
 C            1.82326002       -3.01384463       -0.94238269
 C           -1.28635072       -3.02241615        0.87317913
 C           -0.42668834       -3.57156786       -0.16298661
 C           -2.89518417       -1.17581179        0.72658399
 C           -2.40640800       -2.37190691        0.21905672
 C           -3.62519640       -0.34521473       -0.12185785
 C           -3.24126510        1.55851895        1.36671310
 C           -2.34522100        2.70779668        1.36692998
 C           -3.74272445        1.07394621        0.16906886
 C           -0.57572469        3.52862248       -0.10905102
 C           -1.98302573        3.30011239        0.16833831
 C           -0.36328887        3.32893445       -1.53478955
 C            1.89783092        2.69009995       -1.11048698
 C            2.93900293        1.68707292       -1.24830948
 C            0.79387917        2.68012739       -1.96106594
 C            3.01158892       -0.66320844       -1.91912361
 C            2.83840840        0.74126250       -2.24949289
 C            1.29503424       -2.41291430       -2.08300449
 C            2.05168864       -1.42312802       -2.70664786
 C           -0.93073054       -3.11941785       -1.44569267
 C           -2.23396294       -2.51845334       -1.21927981
 C           -0.06935472       -2.54146482       -2.37606720
 C           -3.48620124       -0.49669523       -1.56300068
 C           -2.66928085       -1.50800993       -2.07212503
 C           -3.50109666        1.80387384       -1.06461987
 C           -2.62195347        2.88141737       -1.06964141
 C           -1.64606664        3.01487782       -2.14005020
 C           -3.46523671        0.83778318       -2.15022439
 C           -1.68882648        2.15447070       -3.22663065
 C           -2.67682952        1.08516712       -3.26551347
 C            0.73852179        1.77880865       -3.03184777
 C            1.75771673        0.84253851       -3.21366905
 C            1.42615482       -0.50837068       -3.64169056
 C           -0.44382919        1.62805960       -3.75592551
 C           -0.63278775       -1.80717395       -3.41856357
 C           -1.99828323       -1.31960186       -3.27991897
 C           -2.08341878       -0.03997034       -3.96024724
 C            0.14410750       -0.77700686       -4.08909151
 C           -0.74018872        0.34121123       -4.36140153
