   70
C70 / DATE: 7/ 1/2024 / Origin: Program Fullerene / C70 from database
 C            1.31215493        0.04267489        4.29690480
 C            2.54470864       -0.26206018        3.61715849
 C            2.52406399       -1.68236578        3.31879798
 C            0.47478690       -1.15201209        4.25449989
 C            1.14106918       -2.11158882        3.40861864
 C           -0.85569407       -0.71519344        3.89688705
 C            0.49668773        1.12664337        3.79493354
 C           -0.85885118        0.72046495        4.08957417
 C            0.76160582        1.68800807        2.53943222
 C            2.83279606        0.42274068        2.37577091
 C            1.88311183        1.27729782        1.80622550
 C            3.21183338       -1.86749140        2.05809983
 C            3.50428627       -0.54374107        1.52565287
 C            2.71455439       -2.82245165        1.18661119
 C            0.51116670       -2.57147858        2.25381220
 C            1.30840731       -3.19793360        1.29441710
 C           -1.46922968       -1.22441528        2.75383504
 C           -0.74423785       -2.05777897        1.88078208
 C           -2.61041575       -0.56023622        2.29212125
 C           -1.87383173        1.43769222        3.49937734
 C           -2.91712497        0.69611300        2.81903977
 C           -0.27687274        2.37478590        1.89888319
 C           -1.49551449        2.48715652        2.57555395
 C           -0.22012584        2.60662622        0.51424699
 C            1.93474150        1.50067062        0.43012698
 C            0.93134781        2.24507635       -0.20280859
 C            3.45475061       -0.35208739        0.15229726
 C            2.90290367        0.83454263       -0.32647921
 C            3.01284658       -2.68010499       -0.22411629
 C            3.51078638       -1.46616044       -0.69016707
 C            0.80163010       -3.38268524       -0.05273640
 C            1.93649158       -3.32382885       -0.95544838
 C           -1.24873232       -2.33522123        0.60224462
 C           -0.38799980       -2.76561815       -0.40637032
 C           -3.22504379       -0.98395972        1.11845731
 C           -2.51708895       -1.89757515        0.24593017
 C           -3.94997276       -0.03555956        0.27993001
 C           -3.60719218        1.67255057        1.99766927
 C           -2.69963714        2.80399637        1.84289470
 C           -4.06512630        1.29029840        0.67627394
 C           -1.33629621        3.13439103       -0.15974371
 C           -2.59197989        3.08085460        0.43527636
 C           -3.65329241        2.34536217       -0.23250953
 C           -1.31084157        3.25539199       -1.54200033
 C            1.02679519        2.52271720       -1.57538879
 C           -0.12011326        2.88879392       -2.27035656
 C            3.05983858        1.14634813       -1.66502892
 C            2.03396883        1.92123168       -2.32674083
 C            3.55242796       -1.26488298       -2.06618620
 C            3.47416903        0.09217601       -2.57457068
 C            1.72775580       -2.95822135       -2.27596095
 C            2.71276189       -2.09974403       -2.91124013
 C           -0.59902969       -2.34919207       -1.72611363
 C            0.41152146       -2.48358469       -2.67439590
 C           -2.74195334       -1.47743566       -1.12551229
 C           -3.65272990       -0.34701212       -1.10957120
 C           -1.66763295       -1.50090521       -2.00951236
 C           -3.50378554        2.06696809       -1.58350995
 C           -2.45428439        2.76911893       -2.29906015
 C           -3.47654271        0.67840890       -2.02881512
 C           -0.52436170        2.07238895       -3.40757074
 C           -1.49557988       -0.47060524       -2.94251023
 C           -1.95493840        1.88150492       -3.33044621
 C           -2.43550712        0.55197142       -3.03588575
 C            1.63880565        1.18758165       -3.51729555
 C            2.56304887        0.09371377       -3.70748149
 C            2.01543703       -1.23559857       -3.84656585
 C            0.58876513       -1.41788460       -3.64463377
 C            0.28001649        0.98693040       -3.72250091
 C           -0.25048281       -0.30657804       -3.56310260
