   70
C70 / DATE: 7/ 1/2024 / Origin: Program Fullerene / C70 from database
 C            1.40266960        0.16718895        5.09217935
 C            0.63750683       -1.05989509        5.19831949
 C            1.40866547       -2.11988375        4.57464753
 C            2.55088857       -0.10336274        4.24360440
 C            2.55254521       -1.51180710        3.91742425
 C            2.51266919        0.84185225        3.15124874
 C            0.57391618        1.14976348        4.41090872
 C            1.33912313        1.67838596        3.30596344
 C           -0.70010287       -0.79291176        4.69877813
 C           -0.70061263        0.53949315        4.10969113
 C           -1.37794391       -1.80595146        4.03713510
 C            0.74353688       -2.97289309        3.60764848
 C           -0.64328493       -2.98464817        3.57764508
 C            2.51870016       -1.89610567        2.51594861
 C            1.47103942       -2.88312717        2.34491545
 C            2.80785611        0.41722973        1.86294894
 C            2.68062532       -0.93497708        1.52524306
 C            2.55609916        1.32784291        0.85264245
 C            0.67610926        2.03794017        2.13732348
 C            1.45905002        2.18004577        1.00121809
 C           -1.24061675        0.72480106        2.83599270
 C           -0.65565708        1.65198891        1.95480174
 C           -2.29687067       -1.44001081        2.97788417
 C           -2.16425357       -0.20215408        2.34727743
 C           -1.28722941       -3.44822372        2.36646990
 C           -2.45557570       -2.61517857        2.15534130
 C            0.76842227       -2.92478929        1.13520889
 C           -0.52578767       -3.43581923        1.12868852
 C            2.26395631       -1.25100608        0.22994454
 C            1.19376559       -2.13576089        0.05711139
 C            2.89220697        0.94990343       -0.43162048
 C            2.57509576       -0.36034043       -0.79472135
 C            2.80841804        1.94210059       -1.38974573
 C            0.86571623        2.68749173       -0.14926776
 C            1.69193983        2.85928747       -1.25498683
 C           -1.24817758        1.86400123        0.70092969
 C           -0.49710871        2.44419546       -0.34200632
 C           -2.66160856       -0.03886950        1.05441987
 C           -2.42537312        1.17518714        0.40387225
 C           -2.58322831       -2.41566692        0.73436474
 C           -1.44195140       -3.02513155        0.08363630
 C           -2.95153429       -1.16699558        0.27266459
 C            0.40610262       -2.05088867       -1.10303764
 C           -0.94962401       -2.37962426       -1.04479219
 C            2.07220878       -0.60669405       -2.07242093
 C            0.86114218       -1.29673589       -2.19021992
 C            2.90532679        1.55870611       -2.77748436
 C            2.50945522        0.20934630       -3.11356917
 C            1.11070372        3.03316324       -2.56812609
 C            2.04967520        2.45789412       -3.52179655
 C           -1.06620557        2.58821912       -1.61806624
 C           -0.25359189        2.82591097       -2.74231824
 C           -3.03671677        1.38026817       -0.82839304
 C           -2.41403607        2.27712826       -1.78129871
 C           -2.91481957       -1.00162809       -1.09824227
 C           -1.84660142       -1.60319355       -1.78037223
 C           -3.41714465        0.19547408       -1.56948465
 C           -0.03567526       -0.96756535       -3.21889696
 C           -1.41423667       -1.06226535       -2.98959549
 C            1.73712268        0.28778352       -4.33799725
 C            1.53192768        1.70153666       -4.64098430
 C            0.44100133       -0.35452256       -4.37753308
 C           -0.72437722        2.56665744       -4.03565929
 C            0.13563517        1.86965509       -4.97663214
 C           -0.42526070        0.53920540       -5.12180870
 C           -2.91281645        1.88230188       -3.08516643
 C           -3.29012429        0.48545067       -2.97547601
 C           -2.30602574       -0.26824958       -3.71488133
 C           -2.03302424        1.98523264       -4.22568491
 C           -1.81362518        0.63424401       -4.73175533
