   70
C70 / DATE: 7/ 1/2024 / Origin: Program Fullerene / C70 from database
 C            1.14329768        0.18466005        4.86278378
 C            2.44445797        0.03290305        4.25052915
 C            2.53088053       -1.33270584        3.77331328
 C            0.34490921       -0.98243468        4.50120406
 C            1.17881749       -1.86093329        3.71664068
 C           -0.89077480       -0.50990814        3.92288424
 C            0.36762532        1.36075697        4.53856939
 C           -0.96843749        0.90728084        4.20302930
 C            0.80845461        2.23056363        3.45799025
 C            2.81390663        0.90002111        3.14329099
 C            1.97691534        1.94642349        2.74842795
 C            3.30479450       -1.32249216        2.54754187
 C            3.43678330        0.06540640        2.12427292
 C            2.98921891       -2.26768893        1.59067261
 C            0.71613556       -2.35097309        2.49739369
 C            1.67023549       -2.88595053        1.64154910
 C           -1.27191873       -0.94601898        2.65611997
 C           -0.49506132       -1.88211641        1.95972469
 C           -2.19250197       -0.17583959        1.94641712
 C           -1.46228104        1.76643483        3.15221203
 C           -0.38489664        2.64290188        2.73214031
 C           -2.23304114        1.20837885        2.15266026
 C           -0.29101338        2.96665915        1.37607186
 C            2.11813485        2.45893721        1.46354509
 C            0.97340019        3.06657561        0.80067625
 C            3.27324180        0.40295093        0.77808577
 C            2.85099999        1.69062880        0.46848603
 C            3.22081715       -1.93978707        0.20413504
 C            3.18566229       -0.60323181       -0.19200467
 C            1.30588999       -3.22591035        0.28285479
 C            2.45498268       -2.91074305       -0.54748544
 C           -0.85186693       -2.20616010        0.64012864
 C            0.03834066       -2.90759340       -0.18751364
 C           -2.72992223       -0.68352920        0.76301230
 C           -2.05219096       -1.71682248        0.10900579
 C           -3.60881286        0.13468641        0.04620147
 C           -2.47677264        2.00641711        1.05398249
 C           -1.40161929        2.74690877        0.54696592
 C           -3.46837013        1.57021310        0.19575045
 C           -1.25676402        2.88162480       -0.83923343
 C            1.12938989        2.85251501       -0.62766382
 C            2.25770302        1.95962358       -0.82693887
 C           -0.00033783        2.68240732       -1.41411814
 C            2.75161945       -0.30083691       -1.48942804
 C            2.14091682        0.93190924       -1.75213942
 C            2.23641958       -2.66111213       -1.88665893
 C            2.59967819       -1.35137302       -2.39618415
 C           -0.17649371       -2.94926395       -1.56765501
 C            0.92293388       -2.94798692       -2.42748520
 C           -2.43016722       -2.08834874       -1.18022713
 C           -1.43737919       -2.65443426       -2.07166198
 C           -3.89714576       -0.13686771       -1.35096032
 C           -3.28233267       -1.21499658       -1.96893175
 C           -3.57178452        2.17514964       -1.11126864
 C           -2.39110266        2.81763292       -1.64593743
 C           -3.98434593        1.14000704       -2.04217402
 C           -2.25526864        2.38644982       -3.02513781
 C           -3.23540191        1.33535413       -3.26702513
 C            0.11219988        1.94636775       -2.59494619
 C            1.16549146        1.03970004       -2.74825274
 C           -0.96736691        1.89550980       -3.47267296
 C            1.82667427       -1.14849802       -3.60699547
 C            0.84522152       -2.22294130       -3.68052455
 C            1.10988408        0.09556931       -3.76843567
 C           -1.56707324       -1.99770183       -3.36829169
 C           -2.67175623       -1.05847665       -3.28414932
 C           -2.53299906        0.20689043       -3.84977931
 C           -1.21082180        0.67891263       -4.22750751
 C           -0.42281240       -1.63828166       -4.07071357
 C           -0.17519895       -0.23337288       -4.35816759
