   70
C70 / DATE: 7/ 1/2024 / Origin: Program Fullerene / C70 from database
 C            1.30262794       -0.08719656        4.45304562
 C            2.63398390       -0.34050533        3.93741138
 C            2.65801121       -1.69668338        3.41862859
 C            0.48961984       -1.26656130        4.19507602
 C            1.30680601       -2.23066231        3.48846707
 C           -0.74837201       -0.83225408        3.58034376
 C            0.57124019        1.07081656        3.97058701
 C           -0.74121856        0.61876272        3.54750100
 C            1.22648195        2.03215704        3.21313742
 C            3.16861764        0.53804370        2.91250505
 C            2.55464356        1.76137396        2.67360476
 C            3.32934629       -1.67405833        2.12992173
 C            3.55892045       -0.28152313        1.77626951
 C            2.89204765       -2.55144650        1.15078912
 C            0.78348610       -2.86027428        2.36366547
 C            1.67441543       -3.30522380        1.38985472
 C           -1.23261878       -1.51793354        2.46834989
 C           -0.55873912       -2.65865824        2.01787259
 C           -2.13131638       -0.86065258        1.61898539
 C           -1.38063757        1.24353217        2.48543706
 C           -2.33457313        0.51220688        1.78679639
 C            0.47870020        2.75873177        2.20070414
 C           -0.80377365        2.35738412        1.86393777
 C            2.59908024        2.31601190        1.33240590
 C            1.39143630        3.10305753        1.13234035
 C            3.27721958        0.16928093        0.48561357
 C            3.07115146        1.53764601        0.27843199
 C            2.83672890       -2.10017943       -0.22678805
 C            2.91103007       -0.74565850       -0.51072099
 C            1.16758941       -3.71721858        0.09676239
 C            1.83386335       -2.89727769       -0.90954851
 C           -1.09216980       -3.37391225        0.94941441
 C           -0.18906124       -3.96058723       -0.03138322
 C           -2.60357757       -1.50493375        0.47052559
 C           -2.22576771       -2.82022272        0.22924711
 C           -3.23160089       -0.76497557       -0.54053260
 C           -3.15310920        1.20097957        0.90535134
 C           -3.73406991        0.49351350       -0.21612895
 C           -1.34022289        2.79870684        0.65701118
 C           -2.66762434        2.47345374        0.40836159
 C            0.90496826        3.24248192       -0.16539772
 C           -0.47433991        3.10315280       -0.41072490
 C            2.83114721        1.99622475       -1.01147251
 C            1.81311557        3.01651382       -1.19551863
 C            2.36964826       -0.28473144       -1.70548625
 C            2.63735041        1.02474648       -2.06807564
 C            1.08139110       -2.32234316       -1.93594357
 C            1.32054165       -0.99433679       -2.31242470
 C           -0.78819741       -3.78882642       -1.33827180
 C           -2.12727162       -3.26576008       -1.14115747
 C           -0.11718174       -2.92862455       -2.29769070
 C           -3.09126461       -1.14728005       -1.88772264
 C           -2.37064423       -2.29651215       -2.18475278
 C           -1.14217775       -2.14327706       -2.95184366
 C           -3.10041654       -0.17509370       -2.88309184
 C           -3.97394029        1.47877540       -1.25502529
 C           -3.22058067        2.67538702       -0.90775226
 C           -3.65088728        1.13589222       -2.61900292
 C           -0.95759438        3.14175909       -1.73444807
 C           -2.31484127        2.96467126       -1.99470572
 C           -2.70227378        2.12017359       -3.11324741
 C            1.34277054        2.91074489       -2.55602472
 C            1.84805327        1.65710547       -3.09977574
 C           -0.07936433        2.94356912       -2.79782026
 C            0.44475681       -0.35369658       -3.20764146
 C           -0.82988072       -0.88038796       -3.44153603
 C           -1.89659127       -0.01099196       -3.67964269
 C           -1.66187344        1.41518491       -3.84513515
 C            0.72178077        0.93662480       -3.65295061
 C           -0.36479751        1.89179447       -3.75897137
