   70
C70 / DATE: 7/ 1/2024 / Origin: Program Fullerene / C70 from database
 C            1.05368770       -0.11218595        4.97089971
 C            2.41309548       -0.42565591        4.59358011
 C            2.37430574       -1.68329219        3.85202848
 C            0.26009920       -1.29578023        4.69607743
 C            0.98501776       -2.05359384        3.69634208
 C           -1.06780306       -0.83371349        4.36892588
 C            0.38378022        0.99171000        4.30341325
 C           -1.00893552        0.61956231        4.25423528
 C            0.97515345        1.57868556        3.18113102
 C            3.12452575        0.53456661        3.77698935
 C            2.36443613        1.55242154        3.06678670
 C            3.17860350       -1.51294813        2.66319601
 C            3.84167104       -0.22611150        2.77649636
 C            2.66155652       -1.87169460        1.42060879
 C            0.45255852       -2.16694404        2.41074709
 C            1.30698062       -2.22112839        1.29782686
 C           -1.68314888       -1.31425243        3.14944255
 C           -0.92906500       -2.02440611        2.21884743
 C           -1.77684415        0.98083221        3.08581331
 C           -2.47569934       -0.21398811        2.66086685
 C            0.19412804        1.92142491        2.06257101
 C           -1.20089028        1.76999508        2.09440111
 C            0.81783997        2.29947462        0.86377538
 C            2.97470000        1.69433642        1.75950807
 C            3.91811272        0.59571741        1.58617950
 C            2.18695955        2.06785183        0.67705695
 C            3.33193322       -1.38817646        0.30324377
 C            3.92384955       -0.05872126        0.36523125
 C            2.73796953       -1.54317103       -1.00701514
 C            0.75337622       -2.43275009        0.02790567
 C            1.48817684       -2.12283930       -1.12531800
 C           -1.44589520       -2.13563735        0.92891759
 C           -0.62474404       -2.63475763       -0.07511983
 C           -2.88072119       -0.25099319        1.34254930
 C           -2.56997757       -1.37311654        0.57792488
 C           -1.91868975        1.88010676        0.90256794
 C           -2.95083041        0.96006264        0.68093142
 C            0.04103711        2.69471454       -0.23080628
 C           -1.34608146        2.54554912       -0.18100058
 C            0.66946116        2.89742383       -1.45912121
 C            2.66414633        1.79608648       -0.60520139
 C            3.44335179        0.66086894       -0.79556661
 C            2.99785442       -0.33162990       -1.75658904
 C            1.95661698        2.27835881       -1.69341053
 C            2.07606729        0.05483803       -2.72132940
 C            1.80605042        1.41661110       -2.85461012
 C            0.82065372       -1.97746436       -2.33793280
 C            1.11924188       -0.86910531       -3.15023980
 C           -1.18438389       -2.89347557       -1.32096728
 C           -0.36933010       -2.67556572       -2.49669832
 C           -3.04002951       -1.41277025       -0.73953287
 C           -2.49979942       -2.35278182       -1.61203489
 C           -3.62999731        0.96465638       -0.52294703
 C           -3.70990908       -0.29236829       -1.25015461
 C           -2.11184444        2.74962440       -1.33064193
 C           -3.35570798        2.02053829       -1.47047118
 C           -0.08759430        2.78674657       -2.69557561
 C            0.61404009        1.85019159       -3.56352674
 C           -1.47055481        2.76661210       -2.63397848
 C            0.25521033       -0.48571996       -4.17574876
 C           -0.10325945        0.91609450       -4.29933262
 C           -1.25580132       -2.37667544       -3.60283042
 C           -2.57919753       -2.13951981       -3.04844339
 C           -0.92719044       -1.26978501       -4.47087976
 C           -3.66275050        0.02035499       -2.67208585
 C           -3.40458271        1.44619801       -2.80416478
 C           -2.22442539        1.89202684       -3.52253329
 C           -1.55415720        0.99469589       -4.34751658
 C           -3.05276345       -0.86375953       -3.55076147
 C           -2.06364411       -0.36245955       -4.49293182
