   70
C70 / DATE: 7/ 1/2024 / Origin: Program Fullerene / C70 from database
 C            1.09630403       -0.04967302        4.60123112
 C            2.34203292       -0.33504352        3.92800342
 C            2.23748053       -1.66936884        3.35831166
 C            0.25973769       -1.23529984        4.48286944
 C            0.85182337       -2.07140533        3.45908644
 C           -1.09927223       -0.78356514        4.30347209
 C            0.30316117        1.07527142        4.14406583
 C           -1.07290263        0.67057612        4.30752864
 C            0.66963790        1.75506016        2.97816889
 C            2.76797372        0.54660581        2.86232676
 C            1.98094132        1.63534950        2.49211660
 C            2.83947295       -1.62857621        2.04032480
 C            3.33658516       -0.28615623        1.81588643
 C            2.19705679       -2.25363151        0.98564400
 C            0.15636272       -2.33367166        2.27874479
 C            0.87964688       -2.70335008        1.14374649
 C           -1.81626693       -1.19057163        3.11063069
 C           -1.17033977       -1.91902565        2.11921448
 C           -2.02355459        1.11461004        3.32072113
 C           -2.62548675       -0.06058487        2.71032081
 C           -0.32057998        2.39526876        2.20509334
 C           -1.68385596        2.16169995        2.48024882
 C            0.05597429        3.15822754        1.08418097
 C            2.33934317        2.29254280        1.32544930
 C            1.36572558        3.10318640        0.62766120
 C            3.35310883        0.20631437        0.51180191
 C            3.11586409        1.56912141        0.32858353
 C            2.64890119       -1.96376513       -0.29483734
 C            3.14051479       -0.67762169       -0.55555313
 C            2.18274189       -2.76519509       -1.32976362
 C            0.18477404       -3.13523751        0.01344724
 C            0.94020133       -3.47636538       -1.10798829
 C           -1.71972934       -1.92432965        0.84083075
 C           -1.15471005       -2.74966666       -0.12780462
 C           -3.03941716        0.04403533        1.38359593
 C           -2.62515986       -0.92212245        0.45835345
 C           -2.62873255        2.44667543        1.50797973
 C           -3.34160845        1.32240234        0.92085379
 C           -0.90645045        3.62810442        0.19301537
 C           -2.30100612        3.37353540        0.45664616
 C           -0.68569174        3.45630275       -1.23706623
 C            1.60840315        2.96607243       -0.80191885
 C            2.74188821        2.07607227       -0.98078112
 C            0.51892921        2.90251245       -1.66871293
 C            3.11146723       -0.17223487       -1.85501004
 C            2.76710115        1.22143536       -2.06790485
 C            2.16780231       -2.26487486       -2.69249941
 C            2.49334636       -0.93940712       -2.92130680
 C            0.30323930       -3.66392928       -2.39403116
 C            1.00446667       -2.82548773       -3.35508378
 C           -1.81266304       -2.87751984       -1.34771655
 C           -1.10967125       -3.38666752       -2.50883167
 C           -2.92976266       -0.74961544       -0.89736757
 C           -2.66158657       -1.78728448       -1.78870962
 C           -3.45254652        1.56350762       -0.50427053
 C           -2.90982253        2.88655242       -0.76818988
 C           -1.94208049        3.03879625       -1.83861407
 C           -3.16786642        0.53519427       -1.39381524
 C           -1.92168679        2.08298168       -2.83956716
 C           -2.71235530        0.87534800       -2.66643251
 C            0.53698771        2.01604286       -2.75430304
 C            1.67656015        1.26309404       -3.02570343
 C            1.53535199       -0.07075898       -3.59363596
 C           -0.64806309        1.67688092       -3.40112093
 C            0.03123453       -1.92522285       -3.94616146
 C           -1.28391107       -2.42337541       -3.58205660
 C           -2.29435801       -1.47274396       -3.16225746
 C           -2.13313845       -0.14427521       -3.51695001
 C            0.26756571       -0.55039128       -3.92775168
 C           -0.81543323        0.32863545       -3.92643851
