   70
C70 / DATE: 7/ 1/2024 / Origin: Program Fullerene / C70 from database
 C            1.43854155       -0.40581061        5.50214622
 C            0.54464934       -1.51594228        5.24344644
 C            1.14629670       -2.31809224        4.19670561
 C            2.55640698       -0.50846265        4.57411734
 C            2.27349761       -1.58983066        3.65300372
 C            2.77626373        0.80745533        4.03230540
 C            0.72403931        0.81225954        5.17007476
 C            1.65612269        1.64627170        4.44960375
 C           -0.69481741       -0.97913397        4.70090635
 C           -0.52042325        0.44273388        4.51118388
 C            0.08740661       -2.66017213        3.28190468
 C           -1.03403918       -1.77655016        3.54213988
 C            0.41007022       -2.83104767        1.95226829
 C            2.30295379       -1.37106753        2.27011593
 C            1.58091850       -2.24192432        1.45513855
 C            2.90362288        0.95588566        2.59318797
 C            2.69308903       -0.13078755        1.74259300
 C            1.18392069        2.31814154        3.26152125
 C            2.23494727        2.19388268        2.27686517
 C           -0.82283759        0.98783318        3.26109663
 C           -0.12403968        2.11822363        2.81961310
 C           -1.61311898       -1.15804106        2.43250342
 C           -1.57728286        0.23983959        2.33872908
 C           -0.66259313       -2.88462521        1.08778276
 C           -1.63706303       -1.89609010        1.24664654
 C           -0.37623240       -3.33984901       -0.17933819
 C            1.70847159       -2.13157396        0.06851213
 C            0.93467044       -2.99925304       -0.69378633
 C            2.43297036        0.14650011        0.39042494
 C            2.06616320       -0.89158707       -0.47514050
 C            1.85808136        2.41025057        0.96954810
 C            2.21910204        1.47584168        0.00092382
 C           -0.42411655        2.62753839        1.56035483
 C            0.65283217        3.06351536        0.78640008
 C           -1.96694466        0.84752190        1.14017176
 C           -1.56206067        2.16063010        0.90659628
 C           -2.21628405       -1.32991381        0.11127569
 C           -2.39970100        0.05641680        0.06493640
 C           -1.32643736       -3.09985645       -1.23548895
 C           -2.25161772       -2.07695620       -1.06900246
 C            0.79007423       -2.77532198       -2.11302438
 C           -0.56416421       -3.17528386       -2.46581436
 C            1.78100145       -0.60280892       -1.82269944
 C            1.31429513       -1.62109735       -2.67274748
 C            1.84778493        1.75721874       -1.31466949
 C            1.80209915        0.73140189       -2.25648979
 C            0.40721463        3.55479162       -0.47935202
 C            1.15215689        2.94753426       -1.56558542
 C           -1.93942864        2.79199074       -0.27234534
 C           -0.96980022        3.66123823       -0.90950719
 C           -2.82922285        0.66679005       -1.12137054
 C           -2.58780601        2.02182072       -1.31679724
 C           -2.85311867       -1.53905096       -2.19773076
 C           -3.09298852       -0.11174581       -2.24564421
 C           -1.12642701       -2.66703911       -3.62471759
 C           -2.39300667       -1.96134655       -3.51568396
 C            0.96142717       -1.34078514       -3.99084086
 C           -0.27229755       -1.90595063       -4.51923555
 C            1.43040329        1.05692174       -3.56016969
 C            1.05903423        0.01025478       -4.48524329
 C            0.34460483        3.08307988       -2.76502521
 C           -1.00176806        3.41710124       -2.33915736
 C           -2.06483066        2.46799184       -2.60331696
 C            0.49447666        2.14614780       -3.76934575
 C           -2.65590425        0.36714058       -3.54979353
 C           -2.32712686       -0.78705507       -4.36811827
 C           -1.06154696       -0.81820005       -5.07136458
 C           -0.23421626        0.36845310       -5.05738408
 C           -1.88951576        1.52956613       -3.61572369
 C           -0.69683196        1.55206814       -4.35308929
