   70
C70 / DATE: 7/ 1/2024 / Origin: Program Fullerene / C70 from database
 C            1.43274144        0.00575804        4.70614893
 C            0.68104683       -1.19045601        4.38956076
 C            1.32376709       -1.85387678        3.26712115
 C            2.59020841        0.03596290        3.83450068
 C            2.50681903       -1.08516438        2.92291014
 C            2.65068957        1.35752037        3.25411585
 C            0.59565060        1.14470445        4.36015594
 C            1.34291728        1.97012600        3.44473491
 C           -0.69900974       -0.78975555        4.22930157
 C           -0.68388336        0.63346735        3.92640352
 C           -1.49723997       -1.59214312        3.44107278
 C            0.51178350       -2.35439939        2.25033341
 C           -0.84670225       -2.51770498        2.52108005
 C            0.92604074       -2.24360419        0.91974107
 C            2.78679974       -0.84573378        1.58630936
 C            2.12603423       -1.58731747        0.60656367
 C            3.22599489        1.50000813        2.00031508
 C            3.42998612        0.34286370        1.22969822
 C            2.91776852        2.68418406        1.34431809
 C            0.70661142        2.50420009        2.32621489
 C            1.54023137        3.14080684        1.41225481
 C           -1.22848824        1.06981678        2.71431936
 C           -0.49126450        1.91887555        1.87233100
 C           -2.52554237       -0.94756039        2.66132881
 C           -2.29550427        0.34414132        2.18532992
 C           -1.77816000       -2.73695186        1.42346147
 C           -2.96746450       -1.95815235        1.72878449
 C            0.07395168       -2.66894472       -0.10333475
 C           -1.30151011       -2.74893766        0.11524089
 C            0.55658361       -2.75417865       -1.39713256
 C            2.55430851       -1.49354214       -0.72160002
 C            1.80694348       -2.09799246       -1.72858302
 C            3.91004108        0.46003678       -0.07190139
 C            3.42995220       -0.46866166       -1.08376816
 C            3.40023298        2.89635161       -0.00048749
 C            4.00075400        1.77356570       -0.68670921
 C            1.09345730        3.34528234        0.05284352
 C            2.27366828        3.35815347       -0.79483577
 C           -0.89178141        2.07854201        0.53400810
 C           -0.03496338        2.67493105       -0.38995712
 C           -2.83161111        0.69580880        0.94792627
 C           -2.05672151        1.46145885        0.06722749
 C           -3.75687726       -1.54412312        0.67863543
 C           -3.84888417       -0.11482404        0.44519088
 C           -2.19603719       -2.49991685       -0.93602094
 C           -3.50389294       -2.11899070       -0.62223475
 C           -0.36151185       -2.56603306       -2.50630962
 C           -1.71905714       -2.37398604       -2.25001103
 C            1.60771728       -1.37406384       -2.97248743
 C            0.30818055       -1.74006761       -3.50353938
 C            3.15644945        0.28983716       -2.29789096
 C            3.39326527        1.69129196       -2.00152582
 C            2.25217663        2.58295667       -2.01920877
 C            2.02994124       -0.05060157       -3.04126579
 C           -0.12182692        2.31487503       -1.73209823
 C            1.04627959        2.05895457       -2.45660997
 C            1.07985260        0.94588508       -3.29232999
 C           -2.32665209        1.45444568       -1.31285923
 C           -1.32313812        1.81505161       -2.22101375
 C           -4.28384082        0.04610299       -0.92543957
 C           -4.24667468       -1.27845182       -1.53430669
 C           -3.52590265        0.92172260       -1.78630263
 C           -2.50547583       -1.76938488       -3.23631142
 C           -3.75212931       -1.12267577       -2.87900798
 C           -3.56172129        0.30190072       -3.09752815
 C           -0.42150817       -0.77748195       -4.18208147
 C           -0.09401295        0.62089240       -3.95809826
 C           -1.31015017        1.26521907       -3.50417564
 C           -1.86919814       -0.88551588       -4.19347679
 C           -2.41050810        0.44549298       -3.95903874
