   70
C70 / DATE: 7/ 1/2024 / Origin: Program Fullerene / C70 from database
 C            1.17251564       -0.11768233        5.92588112
 C            0.40512505       -1.30932978        5.61042881
 C            1.19755460       -2.13052553        4.71102223
 C            2.45337460       -0.22009884        5.24764564
 C            2.45493902       -1.44911122        4.46977467
 C            2.68253516        1.04147365        4.56823383
 C            0.47437362        1.02526933        5.35902518
 C            1.44863451        1.81274622        4.63917472
 C           -0.77516936       -0.89318605        4.87633337
 C           -0.68354426        0.53282654        4.63429663
 C            0.35926457       -2.47302345        3.57167787
 C           -0.89591968       -1.75881835        3.71996947
 C            0.92456969       -2.53333556        2.29700730
 C            2.95795940       -1.43736506        3.17447619
 C            2.26672015       -2.18871375        2.13608424
 C            3.10794911        1.02406003        3.17871424
 C            3.40761561       -0.18609992        2.57170951
 C            1.12555386        2.23672686        3.29227020
 C            2.28004065        1.97453865        2.45883461
 C           -0.93714298        0.98107287        3.33721815
 C           -0.13080638        1.96712421        2.75468979
 C           -1.45527372       -1.23338191        2.56613016
 C           -1.66431875        0.14355921        2.48938766
 C            0.07593793       -2.42973828        1.18903050
 C           -1.20183420       -1.90070769        1.37490025
 C            0.63668546       -2.36749441       -0.08626037
 C            2.70060589       -1.63266868        0.86886776
 C            3.21842922       -0.30636599        1.13686013
 C            1.88687854       -1.77410163       -0.24125892
 C            2.04857016        1.79664505        1.09873128
 C            2.68064009        0.75598145        0.41199298
 C           -0.29468864        2.20762825        1.39102803
 C            0.84459788        2.27518244        0.58827559
 C           -2.09005514        0.64893913        1.26628748
 C           -1.48547809        1.81235346        0.79058552
 C           -1.92532881       -1.49805595        0.25672005
 C           -2.56632256       -0.26407961        0.33112690
 C           -0.21307464       -2.34350072       -1.18774348
 C           -1.54759989       -1.98467969       -0.99435921
 C            0.35804713       -2.05800757       -2.42098845
 C            2.02785893       -0.83536150       -1.25803936
 C            2.25336197        0.49150744       -0.89210791
 C            1.35212726       -1.07994142       -2.44806549
 C            0.67134848        2.27222698       -0.78878706
 C            1.52136913        1.47222533       -1.55325423
 C           -1.70342724        2.17566024       -0.54125649
 C           -0.59231087        2.57178281       -1.29135791
 C           -3.16219214        0.24804624       -0.80781027
 C           -2.78929995        1.59381742       -1.19364922
 C           -2.31807024       -1.64668287       -2.11266549
 C           -3.18146887       -0.55533995       -2.01507959
 C           -0.43484084       -2.23299874       -3.54393861
 C           -1.86325329       -2.03834726       -3.37271979
 C           -0.04347188       -1.56254206       -4.76803324
 C            1.24942679       -0.04418532       -3.37847209
 C            1.21012733        1.27067141       -2.89740491
 C            0.74378640       -0.35221849       -4.64223265
 C           -0.70689594        2.74432698       -2.66696053
 C            0.35204593        2.19549750       -3.48770740
 C           -2.90654807        1.68922979       -2.63805287
 C           -3.31210627        0.37505899       -3.12766696
 C           -1.95782075        2.42584928       -3.33091311
 C           -2.35904894       -1.35360119       -4.55737412
 C           -1.25671658       -1.24526752       -5.49778265
 C           -2.95075309       -0.03831083       -4.40420919
 C            0.09297501        0.67635139       -5.43406539
 C           -0.19596712        1.94449919       -4.80489554
 C           -1.64358242        2.07470457       -4.70570707
 C           -1.16535942        0.13892655       -5.92684852
 C           -2.23385376        0.87835963       -5.27672394
