   70
C70 / DATE: 7/ 1/2024 / Origin: Program Fullerene / C70 from database
 C            1.15365095       -0.06310452        4.61646497
 C            2.47153794       -0.26319321        4.04527559
 C            2.51921308       -1.61986706        3.53464166
 C            0.35352694       -1.24111146        4.31046462
 C            1.16048590       -2.13275816        3.51231300
 C           -0.90481441       -0.79117557        3.77005566
 C            0.38752851        1.10499140        4.22182931
 C           -0.95367424        0.65746517        3.89262426
 C            0.98093115        2.07680435        3.43108737
 C            2.92308601        0.62016151        2.98367981
 C            2.23287931        1.79657007        2.73387230
 C            3.25223043       -1.59625881        2.28474283
 C            3.33566475       -0.20705764        1.86017561
 C            2.91002193       -2.53744503        1.33250304
 C            0.66424417       -2.62634679        2.30649324
 C            1.59636258       -3.16291486        1.42614097
 C           -1.40601938       -1.37495136        2.61193505
 C           -0.56231074       -2.15655262        1.80179419
 C           -2.51779716       -0.76041773        2.05173463
 C           -1.72119880        1.36764858        2.97073466
 C           -2.72005687        0.65711691        2.30547206
 C            0.14539849        2.84130821        2.52732530
 C           -1.21300649        2.54734475        2.40454030
 C            2.07528674        2.23597354        1.35986797
 C            0.91487760        3.09743585        1.31938446
 C            2.94964875        0.13356355        0.55787645
 C            2.27880689        1.33739315        0.32131587
 C            3.07769654       -2.18765365       -0.05936014
 C            2.96965564       -0.84991939       -0.43641861
 C            1.19478236       -3.51117438        0.07986667
 C            2.31613584       -3.17692140       -0.78733235
 C           -0.90833234       -2.40350491        0.45781370
 C           -0.09545889       -3.21548014       -0.34523152
 C           -2.86486091       -1.01482700        0.67191169
 C           -1.99998723       -1.74585553       -0.11951684
 C           -3.37892062        1.22856637        1.14885314
 C           -3.45612844        0.19317836        0.12482384
 C           -1.89169975        3.15475115        1.34893693
 C           -3.07573250        2.52818042        0.78587654
 C            0.22096400        3.25251203        0.12819655
 C           -1.10412273        3.65830884        0.23560300
 C            1.60699835        1.52886095       -0.88483812
 C            0.62616652        2.52957290       -1.00415217
 C            2.49470450       -0.55297668       -1.71673899
 C            1.88629216        0.68095836       -1.95419048
 C            2.05926683       -2.93825992       -2.12288894
 C            2.31174625       -1.59830006       -2.62719375
 C           -0.36266175       -3.32265028       -1.71145255
 C            0.76276754       -3.33552787       -2.63148805
 C           -2.07500566       -1.59654063       -1.50039196
 C           -1.40017240       -2.49962870       -2.30724463
 C           -3.22477196        0.51310320       -1.21272458
 C           -2.62502623       -0.43292597       -2.05028442
 C           -3.14467085        2.89616735       -0.61567813
 C           -1.94513556        3.65588998       -0.93683099
 C           -3.26372465        1.84828600       -1.61404350
 C           -0.08625418        2.67257396       -2.20422974
 C           -1.40865165        3.11607901       -2.16679273
 C           -2.44581349        2.27153741       -2.73497726
 C            1.36469773        0.96509321       -3.21019613
 C            0.31580012        1.96072184       -3.33036147
 C            1.45238943       -1.41001098       -3.78320481
 C            0.44699207       -2.46196706       -3.74490180
 C           -0.95181554       -2.09011421       -3.62919827
 C            1.05131018       -0.12659225       -4.11954928
 C           -2.31188149       -0.07292968       -3.36237226
 C           -2.06876423        1.32602514       -3.67141204
 C           -0.71700715        1.40704562       -4.19186252
 C           -1.34391626       -0.85243705       -4.11548517
 C           -0.31435366        0.06816341       -4.57368302
