   70
C70 / DATE: 7/ 1/2024 / Origin: Program Fullerene / C70 from database
 C            1.72096761       -0.04297008        4.55933528
 C            0.91337019       -1.24343604        4.48982031
 C            1.23335331       -1.93650413        3.25327902
 C            2.64690968       -0.08193366        3.44848854
 C            2.39011952       -1.27899973        2.67131997
 C            2.53687226        1.18307424        2.75949142
 C            0.83328376        1.08998098        4.34319699
 C            1.26480355        1.76771367        3.14202428
 C           -0.45654979       -0.83562350        4.69368214
 C           -0.51635989        0.59227037        4.39459633
 C           -1.44309070       -1.63739076        4.14844686
 C            0.18434355       -2.33632416        2.42644640
 C           -1.09535585       -2.44407624        2.97909294
 C            0.33174850       -2.23630653        1.03784627
 C            2.47773028       -1.16469908        1.29040106
 C            1.56052062       -1.84281070        0.49259310
 C            2.83212755        1.19819226        1.41375396
 C            3.07210363       -0.01712216        0.77015081
 C            2.22520840        2.18660526        0.66307063
 C            0.34106465        2.05910479        2.13030368
 C            0.85562339        2.37788526        0.86365279
 C           -1.44372817        1.03445839        3.45453569
 C           -0.99273591        1.63117956        2.25477636
 C           -2.71016480       -1.00151441        3.85831349
 C           -2.68199691        0.40294012        3.49087980
 C           -2.25414693       -2.47418624        2.10336515
 C           -3.31183473       -1.72113126        2.75774962
 C           -0.77843110       -2.39437678        0.20219199
 C           -2.07364644       -2.33045182        0.73098301
 C           -0.60509584       -2.39256886       -1.18075068
 C            1.70050016       -1.74087386       -0.89207546
 C            0.66507442       -2.18422919       -1.72073433
 C            3.31358194        0.03678432       -0.59914660
 C            2.73039063       -0.94134832       -1.41104308
 C            2.76732648        2.39858815       -0.58914487
 C            3.54117387        1.30392026       -1.13436044
 C            1.90952099        2.85615261       -1.65616246
 C            0.00519474        2.41897125       -0.24833318
 C            0.53511985        2.70210800       -1.51484455
 C           -1.84996617        1.74264400        1.14700376
 C           -1.31938864        1.99139074       -0.12111507
 C           -3.60929837        0.57952325        2.40251635
 C           -4.04364836       -0.74675984        1.97882795
 C           -3.16343154        1.28860671        1.22400033
 C           -3.10587469       -1.77372316       -0.03407309
 C           -3.90333252       -0.79141951        0.54264062
 C           -3.71114347        0.57250195        0.09080989
 C           -1.72272738       -2.21578772       -1.99117583
 C           -2.92592537       -1.67200220       -1.40357357
 C           -1.57241469       -1.56791618       -3.28168547
 C            0.79485089       -2.09025651       -3.10597863
 C           -0.32399843       -1.58507396       -3.88010889
 C            2.96583135       -0.91529416       -2.78551999
 C            1.99872980       -1.51965971       -3.67561556
 C            3.58599188        1.48577725       -2.56836661
 C            2.55678641        2.46160540       -2.90113328
 C            3.39270027        0.32572150       -3.40938730
 C            0.14729142       -0.40013333       -4.57557254
 C            1.59251743       -0.50607118       -4.64226374
 C            1.75327780        1.90495252       -3.97188276
 C            2.39888916        0.67624739       -4.40839690
 C           -0.23878423        2.49643476       -2.65299538
 C            0.36915207        1.95667191       -3.86362855
 C           -0.44390940        0.83162177       -4.30393982
 C           -2.07347088        1.66372929       -1.25838806
 C           -3.11516930        0.74417487       -1.14793655
 C           -3.10905784       -0.35896106       -1.99822806
 C           -2.31558329       -0.31626515       -3.21308887
 C           -1.55176527        1.90338780       -2.52339064
 C           -1.68202512        0.87328060       -3.54554602
