   70
C70 / DATE: 7/ 1/2024 / Origin: Program Fullerene / C70 from database
 C            1.42158070        0.10722958        5.01544069
 C            0.63489807       -1.11373883        4.99221688
 C            1.45348934       -2.15284919        4.39871107
 C            2.62009289       -0.12248702        4.22583059
 C            2.69019339       -1.53580561        3.94043174
 C            2.60716390        0.80620369        3.10792760
 C            0.65068295        1.14068341        4.35023591
 C            1.45614966        1.67572369        3.27182231
 C           -0.65034027       -0.80790888        4.38885269
 C           -0.64898211        0.59646011        4.01023034
 C           -1.23116531       -1.72840886        3.52670665
 C            0.90964841       -2.93400528        3.29802476
 C           -0.43174415       -2.81710919        2.97072992
 C            2.89556225       -1.93908555        2.56760593
 C            1.89149484       -2.93424177        2.23091018
 C            2.91806446        0.36025654        1.81958783
 C            3.22613066       -0.99280168        1.60082742
 C            2.52121900        1.15817190        0.73747472
 C            0.80567085        2.09895796        2.12320396
 C            1.52323694        2.12116638        0.93650611
 C           -1.21092300        0.97182090        2.79202770
 C           -0.57939525        1.96715390        2.04023201
 C           -2.09401843       -1.24220527        2.46576288
 C           -2.10435747        0.11162530        2.14936105
 C           -0.83360000       -2.99489257        1.58635277
 C           -2.02800554       -2.19820616        1.38161768
 C            1.49031107       -3.02558241        0.89749079
 C            0.12483155       -3.04125268        0.57111990
 C            3.26855145       -1.46224163        0.29495271
 C            2.40272780       -2.57884089       -0.05056665
 C            2.88787084        0.79330281       -0.56062130
 C            3.23217169       -0.52498513       -0.80864744
 C            2.47598479        1.57437549       -1.63423172
 C            0.93683268        2.75033254       -0.15631509
 C            1.57175935        2.67720083       -1.38835535
 C           -1.20657935        2.42026647        0.88238270
 C           -0.42705187        3.04247652       -0.09735542
 C           -2.60886837        0.49598264        0.90911349
 C           -2.39980615        1.80682895        0.50635565
 C           -2.29880235       -1.75123094        0.10119790
 C           -2.83760503       -0.47652239       -0.07120700
 C           -0.28852077       -2.76526725       -0.74280722
 C           -1.60522961       -2.32536961       -0.95314704
 C            1.98418642       -2.40652594       -1.42159371
 C            2.62975785       -1.21114422       -1.94005748
 C            0.66552409       -2.64619036       -1.76469471
 C            2.04790546        0.92268916       -2.86686164
 C            1.97321748       -0.46822979       -2.91866178
 C            0.81308596        2.90548494       -2.60474100
 C            0.99023059        1.73416652       -3.45460016
 C           -1.06105334        3.60453578       -1.20256424
 C           -0.43691721        3.49588214       -2.51272645
 C           -3.06439617        2.25868190       -0.62366200
 C           -2.47974487        3.35670600       -1.36822733
 C           -3.21427634       -0.07334541       -1.35787388
 C           -3.52745886        1.26833506       -1.58033216
 C           -2.06442197       -2.06700716       -2.23613497
 C           -2.90415386       -0.89680204       -2.44723383
 C            0.27186161       -2.23533197       -3.03178122
 C            0.92863238       -1.07336100       -3.61644728
 C           -1.13650925       -2.15362434       -3.33883013
 C           -0.11583119        1.11779711       -4.04127969
 C           -2.52857341       -0.30743579       -3.72894995
 C           -0.09399504       -0.25771948       -4.25368232
 C           -1.34185900       -0.99700103       -4.19210565
 C           -1.45854861        3.09282330       -3.45914633
 C           -2.74004751        3.13421563       -2.77799324
 C           -3.35269713        1.82457722       -2.91062106
 C           -1.33544381        1.79705346       -4.10332236
 C           -2.57979879        1.06958951       -3.87386573
