   70
C70 / DATE: 7/ 1/2024 / Origin: Program Fullerene / C70 from database
 C            1.21074916       -0.08129685        4.32862207
 C            2.52563455       -0.41575335        3.83104910
 C            2.47215599       -1.77562774        3.31581356
 C            0.38431742       -1.27034986        4.19636000
 C            1.08060217       -2.19398939        3.33393836
 C           -0.92481661       -0.83417117        3.79249915
 C            0.48935969        1.01494549        3.70354992
 C           -0.89646572        0.61398067        3.67097706
 C            1.03268616        1.64596259        2.59004062
 C            3.09403029        0.41603939        2.79420596
 C            2.41181210        1.55052767        2.35931740
 C            3.19402875       -1.80442065        2.05475700
 C            3.66941665       -0.45735835        1.78739999
 C            2.66904924       -2.54538465        1.01196597
 C            0.48282072       -2.60228459        2.14081239
 C            1.31449511       -3.06799799        1.12953005
 C           -1.60010585       -1.53898389        2.80524515
 C           -0.84417712       -2.23385598        1.84300328
 C           -2.81558048       -0.98468653        2.43569635
 C           -1.75318351        1.17246184        2.73652840
 C           -2.92931893        0.46176451        2.54150626
 C            0.17644441        2.10139284        1.57382386
 C           -1.20593106        1.86712917        1.64333278
 C            0.71294277        2.73791798        0.45017477
 C            2.95013097        2.20018472        1.25931227
 C            2.08169008        2.99820516        0.42390111
 C            3.72860488        0.02777530        0.48257641
 C            3.77812807        1.41149014        0.35928199
 C            2.82768687       -2.05502318       -0.34424125
 C            3.16884895       -0.72693632       -0.56226666
 C            0.79723454       -3.21849908       -0.20720517
 C            1.76768124       -2.64576323       -1.13034604
 C           -1.33966168       -2.38956696        0.52883931
 C           -0.55127535       -3.00839742       -0.45194121
 C           -3.41969918       -1.35946228        1.18167128
 C           -2.61279168       -1.90226755        0.18887089
 C           -3.85362683        0.90608847        1.53246275
 C           -4.33563549       -0.28298390        0.85047145
 C           -1.98924169        2.09461145        0.50107466
 C           -3.35279357        1.80666620        0.52210731
 C           -0.05726670        2.85502871       -0.71590142
 C           -1.36492691        2.37416458       -0.71716861
 C            0.54990480        3.09677220       -1.94762685
 C            2.77289868        3.13503317       -0.84236752
 C            3.68486094        2.00623621       -0.95195598
 C            1.99213998        3.16901078       -2.05266954
 C            2.74503641       -0.10271467       -1.74426291
 C            3.21197797        1.17791841       -2.03725522
 C            2.41387613        2.04200885       -2.87279569
 C            1.28915688       -1.98805908       -2.25544450
 C            1.71061284       -0.67009244       -2.51652869
 C           -0.92307950       -2.91559420       -1.78684973
 C            0.06473117       -2.43346220       -2.74214039
 C           -2.98760419       -1.76523674       -1.15536345
 C           -2.20404876       -2.34566414       -2.14213044
 C           -4.50935683        0.07110223       -0.53727867
 C           -4.00902507        1.42964583       -0.71078966
 C           -3.85926184       -0.74368784       -1.53998793
 C           -1.95766084        1.98625055       -1.93186609
 C           -3.23925613        1.44939599       -1.93752896
 C           -3.44666588        0.16890736       -2.58911340
 C            0.10616240        2.33067564       -3.09097402
 C            1.22763669        1.49049067       -3.47721293
 C            1.03489862        0.11608416       -3.47423445
 C           -1.15121370        1.74618831       -3.04460348
 C           -0.62253140       -1.66360149       -3.74634400
 C           -2.03494683       -1.64130006       -3.40406074
 C           -2.50123845       -0.26877426       -3.50431515
 C           -0.19304446       -0.30595107       -3.96865952
 C           -1.33901206        0.56714186       -3.76728860
