   70
C70 / DATE: 7/ 1/2024 / Origin: Program Fullerene / C70 from database
 C            1.02148395       -0.00284905        4.64066215
 C            2.28836544       -0.35317352        4.03860306
 C            2.22173201       -1.75640238        3.66708645
 C            0.18527142       -1.19429810        4.62472546
 C            0.82922916       -2.15481663        3.75344687
 C           -1.15983097       -0.77525648        4.31525867
 C            0.24528274        1.06936629        4.05059213
 C           -1.14160033        0.67060274        4.14354493
 C            0.67292535        1.67305619        2.87091931
 C            2.72547890        0.37713832        2.86722191
 C            1.95391909        1.41776485        2.35518719
 C            2.90185674       -1.91007830        2.39455267
 C            3.27897030       -0.58294109        1.93309400
 C            2.37068280       -2.79896999        1.47663612
 C            0.18969398       -2.60268932        2.59389504
 C            0.97667150       -3.20417988        1.61693815
 C           -1.80587189       -1.32918720        3.14414709
 C           -1.09084581       -2.13546078        2.25591143
 C           -2.02110500        0.98277593        3.03120261
 C           -2.62239778       -0.26492490        2.60100253
 C           -0.27091160        2.32766595        2.07377995
 C           -1.59370129        1.87204655        2.04602003
 C            0.18397445        3.14668513        1.05150165
 C            2.26935467        1.88554707        1.07950913
 C            1.53740793        2.95341312        0.57192573
 C            3.20861410       -0.27788891        0.57654150
 C            2.97738902        1.04725694        0.20950410
 C            2.60296848       -2.56041573        0.06725572
 C            2.99225021       -1.29328250       -0.36319795
 C            0.44452137       -3.40433265        0.28338029
 C            1.55034170       -3.25233952       -0.64688686
 C           -1.56362333       -2.24170656        0.93890903
 C           -0.79589985       -2.87388781       -0.04789306
 C           -3.01359283       -0.35670906        1.27980633
 C           -2.70001076       -1.51382607        0.57220549
 C           -2.29935749        1.88829198        0.83702638
 C           -3.17233376        0.82538508        0.56818355
 C           -0.66600751        3.38849637       -0.09911838
 C           -1.89831910        2.75535551       -0.18799260
 C            1.55744783        3.24182021       -0.85065871
 C            0.18141859        3.45627010       -1.28165494
 C            3.14232159        1.39925386       -1.12478653
 C            2.43427688        2.54715035       -1.66625323
 C            2.81721036       -0.95347420       -1.70804297
 C            3.11462332        0.34348111       -2.11964832
 C            1.27732480       -2.86745681       -1.94689270
 C            2.03464723       -1.77090524       -2.52883820
 C           -1.12278544       -2.72079263       -1.39966359
 C           -0.10688948       -2.70134167       -2.35465953
 C           -3.21264754       -1.65081225       -0.71250994
 C           -2.35659963       -2.18771387       -1.75082346
 C           -3.85451538        0.75927004       -0.63829843
 C           -3.95414964       -0.53602553       -1.28643980
 C           -2.48954816        2.67240422       -1.44347797
 C           -3.57771489        1.74244730       -1.66028701
 C           -0.27941506        2.92247850       -2.48871726
 C           -1.63542218        2.63285926       -2.62017920
 C            2.02227153        2.22143300       -3.01624076
 C            2.48585544        0.87712058       -3.31548208
 C            0.61377571        2.29523328       -3.35711652
 C            1.20530570       -1.18129717       -3.57116075
 C           -0.14283106       -1.69164033       -3.40221497
 C            1.38724431        0.14501460       -3.91712078
 C            0.23483835        1.02764538       -3.96606636
 C           -2.42715412       -1.28584385       -2.89139923
 C           -3.52956047       -0.37534358       -2.66694374
 C           -3.31920431        1.03271639       -2.90448338
 C           -2.02641142        1.46539045       -3.39223672
 C           -1.23847375       -0.83395403       -3.46579007
 C           -1.04821509        0.53338094       -3.73700066
