   70
C70 / DATE: 7/ 1/2024 / Origin: Program Fullerene / C70 from database
 C            1.31385700        0.05786617        4.70776675
 C            2.53607634       -0.08204433        3.94401633
 C            2.51571060       -1.38825885        3.30885791
 C            0.47569592       -1.09798639        4.42597576
 C            1.20343186       -1.97033910        3.52589025
 C           -0.82849037       -0.61825255        4.01291785
 C            0.50956577        1.24553038        4.51412626
 C           -0.84542208        0.82049635        4.19870384
 C            0.90343870        2.21746251        3.50806450
 C            2.85017687        0.89661192        2.91727817
 C            2.07821450        2.05062972        2.76754249
 C            2.97777931       -1.23164722        1.93715700
 C            3.27419529        0.17167646        1.72729507
 C            2.31818928       -1.92861369        0.93494889
 C            0.54386010       -2.50242649        2.42536082
 C            1.30275334       -2.80719636        1.30310507
 C           -1.39786763       -1.13995856        2.85715505
 C           -0.82217224       -2.26088166        2.25259766
 C           -2.23583481       -0.32527658        2.10141176
 C           -1.33081856        1.65161779        3.10876714
 C           -0.31048148        2.64167243        2.82614638
 C           -1.98135060        1.04488073        2.04065396
 C           -0.20840330        3.14226174        1.53636903
 C            2.20681251        2.76431442        1.58062828
 C            1.05614083        3.49011777        1.07514470
 C            3.03948000        0.74229190        0.48033065
 C            2.82504478        2.11332733        0.43558223
 C            2.32739431       -1.42001793       -0.36373533
 C            2.57328647       -0.05418369       -0.57241338
 C            1.79501126       -2.20587129       -1.38920691
 C            0.71306036       -3.58241644        0.32206079
 C            1.10925145       -3.37235313       -1.05650809
 C           -1.46437681       -2.84143305        1.15289251
 C           -0.73243464       -3.70663067        0.33904139
 C           -2.98346984       -0.91105078        1.09511981
 C           -2.63263044       -2.25267753        0.66245927
 C           -3.29505929       -0.13059073       -0.08728921
 C           -1.99495116        1.69078865        0.80081822
 C           -1.20183497        2.82830510        0.60581492
 C           -2.66517775        1.09749295       -0.27587452
 C           -1.13889548        3.41543037       -0.65457926
 C            1.26286051        3.68079097       -0.34683042
 C            2.27050643        2.71299444       -0.76244760
 C            0.15220256        3.86701139       -1.15400266
 C            2.24632575        0.53896767       -1.79848441
 C            2.02910721        1.91848245       -1.87856938
 C            1.65866589       -1.67635002       -2.66878592
 C            1.92460852       -0.26768188       -2.88526093
 C            0.51266351       -2.04720264       -3.49108512
 C            0.00344255       -3.81435587       -1.88689699
 C           -1.16000682       -3.96341776       -1.02561316
 C           -0.37947887       -3.00555072       -3.02698809
 C           -2.98745809       -2.36435782       -0.74713032
 C           -3.42511328       -1.05318786       -1.20121324
 C           -2.23631429       -3.17453160       -1.58868853
 C           -1.78671358       -2.66452639       -2.87542937
 C           -3.09880708       -0.61709397       -2.47661957
 C           -2.25084678       -1.43572849       -3.33184565
 C           -2.51899204        1.60541395       -1.56940034
 C           -1.85984190        2.81374116       -1.76069259
 C           -2.71678577        0.77053728       -2.67125163
 C            0.25071968        3.46167891       -2.54203167
 C            1.21444069        2.43374718       -2.88705489
 C           -1.05574122        2.99081042       -2.95805713
 C            0.98296272        0.21417124       -3.88288246
 C            0.00654123       -0.83765073       -4.11594157
 C           -1.35180143       -0.54488523       -4.05091316
 C           -1.78037860        0.81772362       -3.78419574
 C            0.56923203        1.53699677       -3.82935460
 C           -0.85475493        1.85078587       -3.83472688
