   70
C70 / DATE: 7/ 1/2024 / Origin: Program Fullerene / C70 from database
 C            1.25721770       -0.01408865        4.21207212
 C            2.57192215       -0.32721396        3.70342740
 C            2.60127260       -1.75505908        3.45122165
 C            0.43595638       -1.21177464        4.08573393
 C            1.22531007       -2.21284192        3.40721539
 C           -0.82342987       -0.81085727        3.50249230
 C            0.51971768        1.07081693        3.59913921
 C           -0.85558878        0.63686534        3.50413941
 C            1.05631015        1.76349556        2.51704354
 C            3.02035327        0.33206011        2.49319594
 C            2.21429641        1.28521287        1.88215176
 C            3.42162436       -1.97517030        2.28058760
 C            3.65893131       -0.67299455        1.66151339
 C            3.08022305       -3.03360440        1.45576739
 C            0.75215424       -2.78471962        2.22623785
 C            1.67682944       -3.43748235        1.40473798
 C           -1.30457318       -1.46705304        2.37707032
 C           -0.48190217       -2.37634677        1.68789049
 C           -2.37381315       -0.87149571        1.70740187
 C           -1.66064242        1.26025858        2.56628439
 C           -2.61672481        0.49304518        1.90379283
 C            0.19353865        2.59713967        1.80255943
 C           -1.18791446        2.41809465        1.94842590
 C            0.68881204        3.25364513        0.68015969
 C            2.41062871        1.53990818        0.52775524
 C            1.80211438        2.65591693       -0.03067640
 C            3.59020062       -0.56050997        0.26917169
 C            2.89244297        0.51918609       -0.30253054
 C            3.57078128       -2.99965141        0.09561155
 C            3.85654234       -1.70203349       -0.48686242
 C            1.34341969       -3.69370908        0.01448788
 C            2.57670473       -3.63907334       -0.74471809
 C           -0.82241338       -2.76339129        0.38494337
 C            0.18300778       -3.13187559       -0.50451169
 C           -2.91308996       -1.52052661        0.60518490
 C           -2.07401370       -2.44643541       -0.12557948
 C           -3.71145535       -0.78150708       -0.35924728
 C           -3.56869289        1.15287162        1.13278229
 C           -4.06969376        0.52959197       -0.07941216
 C           -2.07234286        3.14951902        1.16031444
 C           -3.36883102        2.56558259        0.85775749
 C           -0.22534002        3.81010303       -0.30374426
 C           -1.58836321        3.80396969       -0.04276294
 C            1.46381646        2.63696007       -1.43801476
 C            0.26406929        3.43725760       -1.62183851
 C            2.54332706        0.51264975       -1.66511448
 C            1.62385006        1.44914658       -2.13830014
 C            3.42884132       -1.76551823       -1.86478490
 C            2.57766549       -2.94014615       -2.00833876
 C            2.70930983       -0.64196973       -2.41874074
 C            0.13331264       -2.67984366       -1.83341256
 C            1.31328757       -2.48287895       -2.54581095
 C            1.54953738       -1.17145126       -3.10542164
 C           -2.17221486       -2.11085344       -1.53262232
 C           -3.24200433       -1.13898324       -1.68880842
 C           -0.99546853       -1.97930386       -2.26339675
 C           -3.13525143       -0.16507813       -2.67171675
 C           -4.05506529        1.52902781       -1.13738668
 C           -3.65326778        2.79676664       -0.54779953
 C           -2.53250025        3.52903602       -1.11600090
 C           -3.59371186        1.19035953       -2.40448495
 C           -0.63305073        3.09323941       -2.62307433
 C           -2.06502779        3.18565029       -2.37957272
 C           -2.71220936        2.10694927       -3.11017997
 C            0.63871129        1.03073396       -3.04050876
 C            0.45798302       -0.33376868       -3.25749685
 C           -0.81974644       -0.87146848       -3.10219834
 C           -1.91150341       -0.08051204       -3.44970191
 C           -0.38815676        1.89534744       -3.40665393
 C           -1.67601962        1.32078389       -3.75684480
