   70
C70 / DATE: 7/ 1/2024 / Origin: Program Fullerene / C70 from database
 C            1.53056871        0.10680585        4.81961276
 C            0.73547587       -1.09392243        4.63289344
 C            1.55246079       -2.05006533        3.92514018
 C            2.70929727       -0.01189455        3.97730931
 C            2.76543394       -1.36935354        3.49133051
 C            2.66952024        1.06377790        3.00749831
 C            0.75221618        1.23092521        4.33033180
 C            1.53316837        1.90775265        3.32063392
 C           -0.53060005       -0.70296182        4.04325332
 C           -0.55508790        0.74553707        3.94852333
 C           -1.06496361       -1.43254551        2.98256104
 C            0.98840218       -2.70503489        2.76285368
 C           -0.34440302       -2.49722899        2.41122292
 C            2.89727381       -1.58763246        2.06328971
 C            1.97699114       -2.64451112        1.70720128
 C            2.93249531        0.81059852        1.66146582
 C            3.02152682       -0.51159782        1.19026472
 C            2.61517577        1.82192610        0.75241715
 C            0.86760355        2.48630151        2.25032223
 C            1.60216639        2.72523988        1.09549564
 C           -1.16787785        1.30836332        2.83505363
 C           -0.52056381        2.33548370        2.13409562
 C           -2.08492785       -0.83398017        2.24160885
 C           -2.14399618        0.56296505        2.18151225
 C           -2.74900377       -1.60355830        1.29419119
 C           -0.74875187       -2.98474501        1.16537325
 C           -2.06395364       -2.76594357        0.76848278
 C            1.51054831       -2.70555400        0.40304191
 C            0.23519950       -3.22020510        0.19692376
 C            2.82951608       -0.75967054       -0.17042951
 C            2.05213165       -1.85514872       -0.56727366
 C            2.95516655        1.63135601       -0.58220542
 C            3.06950068        0.27070941       -1.06530820
 C            2.32483194        2.42898852       -1.61936795
 C            1.02666228        3.53909750        0.13050579
 C            1.44160719        3.43165250       -1.25654844
 C           -1.16421606        2.92034903        1.03557529
 C           -0.41506250        3.70634258        0.15869984
 C           -2.90594950        1.19352965        1.20685771
 C           -2.40503987        2.42572706        0.62447761
 C           -3.45467997       -0.96421989        0.19605919
 C           -3.52183897        0.41551364        0.14588933
 C           -2.43342649       -2.90827798       -0.62831558
 C           -3.14966714       -1.70213857       -1.01632858
 C           -0.12387876       -3.53949009       -1.10531304
 C           -1.51707839       -3.45574051       -1.51106395
 C            1.57518440       -1.95333680       -1.88233309
 C            0.68151093       -2.98715888       -2.17966571
 C            2.49836026        0.21465291       -2.39526056
 C            2.00323957        1.54339524       -2.73151852
 C            1.76448611       -0.89604917       -2.78690473
 C            0.79491705        1.67308361       -3.42350794
 C            0.28013172        3.67834595       -2.08621384
 C           -0.86281897        3.88562538       -1.21067635
 C           -0.09331064        2.69314578       -3.08301163
 C           -2.76359918        2.41663196       -0.78901592
 C           -3.25137432        1.08877988       -1.11161787
 C           -1.96043849        3.07567219       -1.70216525
 C           -1.49574901        2.36195629       -2.87902372
 C           -2.77419286       -1.02431275       -2.17733324
 C           -2.68413146        0.37680520       -2.16950782
 C           -1.90945882        1.05472580       -3.12538722
 C           -1.54356540       -3.01597321       -2.89474270
 C           -0.16742813       -2.91064396       -3.35076416
 C           -2.20320019       -1.76121102       -3.21181078
 C            0.91096288       -0.73393679       -3.87582529
 C            0.28121380        0.55792150       -4.08098471
 C           -1.15417879        0.33061389       -4.03939720
 C           -0.07757900       -1.74290290       -4.19389167
 C           -1.37895476       -1.08935185       -4.18925480
