   70
C70 / DATE: 7/ 1/2024 / Origin: Program Fullerene / C70 from database
 C            1.27425762        0.04735129        4.77539392
 C            2.48020539       -0.17882296        4.00968807
 C            2.46589919       -1.55848211        3.54687378
 C            0.43746929       -1.13625954        4.64833014
 C            1.18132586       -2.13498878        3.89812760
 C           -0.86374883       -0.71067437        4.15386808
 C            0.45891849        1.19867636        4.45269739
 C           -0.90230155        0.73024809        4.24560206
 C            0.80792555        2.02457400        3.30623860
 C            2.75996277        0.66234452        2.85764480
 C            1.88153113        1.68434809        2.48455800
 C            2.88392305       -1.56026844        2.15227004
 C            3.29164739       -0.20709064        1.82636098
 C            2.15304619       -2.28647541        1.21095686
 C            0.50790514       -2.88140810        2.94334962
 C            1.13730230       -3.12435151        1.65340677
 C           -1.39565445       -1.33671645        3.02814857
 C           -0.88814370       -2.57916313        2.67317240
 C           -2.11963667       -0.59938992        2.07852741
 C           -1.44703272        1.46983404        3.13210524
 C           -0.44106637        2.41422849        2.68794941
 C           -2.17169952        0.80289593        2.15416561
 C           -0.44663245        2.75743482        1.34526176
 C            1.87238618        2.10144162        1.14897056
 C            0.75669042        2.77873135        0.63651545
 C            3.18390942        0.20459539        0.51295158
 C            2.77566331        1.51040471        0.26705967
 C            2.17673087       -1.87502122       -0.12802433
 C            2.94489238       -0.75795416       -0.46097041
 C            1.24676318       -2.38651858       -1.05274958
 C            0.07676778       -3.48418110        0.74146984
 C           -1.18661860       -3.11736532        1.36583649
 C            0.22094974       -3.24263391       -0.61611111
 C           -2.63199549       -1.24505344        0.93994861
 C           -2.15481057       -2.51196751        0.57561293
 C           -3.39525439       -0.50750503        0.03272079
 C           -2.47717727        1.52511466        1.00501270
 C           -1.63010824        2.57631230        0.63745693
 C           -3.31301683        0.93948955        0.06629656
 C           -1.72021384        3.14429632       -0.62478461
 C            0.73197320        3.15800303       -0.71229805
 C           -0.48621556        3.51807825       -1.29248895
 C            2.86702506        1.98635615       -1.03189437
 C            1.81612432        2.84982002       -1.53619947
 C            3.07002543       -0.37982050       -1.78736234
 C            3.20422715        1.03755980       -2.07944024
 C            1.27338718       -1.94144312       -2.38824725
 C            2.17406064       -0.95318826       -2.76932026
 C            0.17217885       -2.14277950       -3.21566869
 C           -0.94255521       -3.35018537       -1.36725635
 C           -2.18642926       -2.90378857       -0.76143734
 C           -0.93972051       -2.93421359       -2.74641822
 C           -3.46442004       -0.91042220       -1.36274992
 C           -2.90367800       -2.11557293       -1.74531871
 C           -2.16172520       -2.18369249       -2.99010075
 C           -3.32899414        1.42983318       -1.30098952
 C           -2.61814011        2.57621738       -1.61580603
 C           -3.25946094        0.27550963       -2.18535937
 C           -0.68449245        3.32357102       -2.71727462
 C           -1.96119006        2.65605513       -2.90496449
 C            1.59817991        2.51181576       -2.93957643
 C            2.39153026        1.33967490       -3.24216569
 C            1.71206401        0.12147503       -3.63962706
 C            0.31894569        2.59377163       -3.46466246
 C           -0.37084730       -1.01050385       -3.94927608
 C           -1.79574850       -0.95108522       -3.66286737
 C           -2.34999703        0.25463717       -3.24922036
 C           -1.72206779        1.43120780       -3.64527916
 C            0.36653470        0.16960007       -4.00234824
 C           -0.31153542        1.39347970       -4.00629143
