   70
C70 / DATE: 7/ 1/2024 / Origin: Program Fullerene / C70 from database
 C            1.13918682        0.13212322        4.36996336
 C            2.38944126       -0.16776035        3.71033785
 C            2.37240514       -1.58121630        3.38125159
 C            0.31087474       -1.06472983        4.31966981
 C            1.00079299       -2.04120516        3.51182357
 C           -1.01628416       -0.66255496        3.92102956
 C            0.33975083        1.22783503        3.86512800
 C           -1.04460822        0.78951853        3.85857378
 C            0.79571387        1.99258748        2.79732331
 C            2.72511872        0.55393720        2.49732231
 C            1.86278218        1.53334741        2.01003797
 C            3.02757432       -1.73959086        2.09909060
 C            3.28404142       -0.40777818        1.56611576
 C            2.53560774       -2.70629989        1.23760889
 C            0.36780686       -2.58472519        2.39378862
 C            1.17191291       -3.18494117        1.42865480
 C           -1.67983754       -1.37164741        2.93207939
 C           -0.94613859       -2.20501813        2.06405319
 C           -2.87453669       -0.81418385        2.50251214
 C           -1.94211320        1.40568550        2.98409695
 C           -2.97477233        0.63603242        2.44068885
 C           -0.11377529        2.88138623        2.24450404
 C           -1.53456604        2.56376190        2.31758314
 C            0.14750463        3.45523846        0.94053444
 C            1.92523347        1.86977033        0.65364440
 C            1.21508373        2.97807607        0.18847466
 C            3.12855845       -0.18840721        0.20036016
 C            2.60295326        1.03009488       -0.24413202
 C            2.73140180       -2.52342873       -0.18583165
 C            3.14246226       -1.28474359       -0.66392261
 C            0.62486386       -3.49225912        0.12350582
 C            1.65014077       -3.20878849       -0.87029611
 C           -1.50504956       -2.62355925        0.83976672
 C           -0.69313492       -3.17392599       -0.15680396
 C           -3.54439969       -1.36191905        1.34980863
 C           -2.81680253       -2.28446894        0.51117939
 C           -3.51691578        0.97539371        1.13306912
 C           -3.97316903       -0.25034196        0.51264465
 C           -2.11583883        2.89088447        1.02552943
 C           -1.13788802        3.67202526        0.29380993
 C           -2.86591628        1.92850915        0.36152048
 C           -1.18824573        3.67778243       -1.08966872
 C            1.27826210        3.32660684       -1.15546102
 C            0.06577145        3.79137739       -1.80834181
 C            2.60828733        1.31438906       -1.61290962
 C            1.97327728        2.46033580       -2.08653751
 C            3.04512482       -1.06216874       -2.02912732
 C            2.91534717        0.29805478       -2.51361928
 C            1.27796444       -2.76453386       -2.13707446
 C            2.13887688       -1.89583028       -2.80704332
 C           -1.07813559       -3.08779753       -1.49297942
 C           -0.06676913       -2.83150403       -2.50931755
 C           -3.12873169       -1.92687658       -0.85984221
 C           -3.55086674       -0.53837971       -0.84126159
 C           -2.26629573       -2.33576101       -1.85883671
 C           -2.63684625        1.69183112       -1.00068307
 C           -1.98690653        2.66083514       -1.75986421
 C           -2.79705898        0.40744533       -1.53272720
 C           -0.07457619        3.06493870       -3.05357716
 C            1.18164843        2.39293150       -3.31201409
 C           -1.27884217        2.25915128       -2.96334979
 C            2.20193043        0.23902934       -3.77634310
 C            1.64014104       -1.09449471       -3.90918297
 C            1.14114329        1.19678086       -4.00966034
 C           -0.62704292       -1.86025682       -3.44384158
 C           -1.86304105       -1.37186382       -2.86607311
 C           -2.00810207       -0.00886925       -2.61111470
 C           -1.20543144        0.90897555       -3.29428760
 C            0.20835441       -0.96163601       -4.08546075
 C           -0.11470216        0.45679352       -4.04589876
