   70
C70 / DATE: 7/ 1/2024 / Origin: Program Fullerene / C70 from database
 C            1.47729245        0.24410020        5.06234494
 C            0.68539302       -0.94659180        4.81523527
 C            1.53865091       -1.90128616        4.14865150
 C            2.68194630        0.14324792        4.25383325
 C            2.75427210       -1.20637700        3.74631554
 C            2.66551329        1.23928808        3.30469457
 C            0.72227849        1.38484184        4.57700671
 C            1.58917574        2.13533507        3.69303779
 C           -0.53892079       -0.54200221        4.15013576
 C           -0.54252612        0.90646762        4.04378720
 C           -1.01413880       -1.27350535        3.06906249
 C            1.02115518       -2.57402958        2.97441295
 C           -0.30262848       -2.38426597        2.58533790
 C            2.90935547       -1.40366190        2.31816598
 C            2.03259373       -2.49074345        1.94358861
 C            2.87763000        0.99952963        1.94470847
 C            2.99846214       -0.31452642        1.45837586
 C            2.58942106        2.03170513        1.04839045
 C            0.98731757        2.88714794        2.69921269
 C            1.65361022        2.99649758        1.41421979
 C           -1.03749695        1.49492537        2.87711703
 C           -0.42161076        2.65476684        2.41058104
 C           -1.92884056       -0.64963678        2.22836079
 C           -1.79915967        0.72198934        1.99013018
 C           -2.61018820       -1.44334791        1.32213500
 C           -0.67126100       -2.90823190        1.34323593
 C           -1.96974821       -2.67136057        0.90142069
 C            1.59317080       -2.56667224        0.63058907
 C            0.34241880       -3.13167718        0.40297203
 C            2.82696126       -0.55402667        0.09481772
 C            2.10277661       -1.67798635       -0.32255595
 C            2.85276670        1.84463429       -0.30288348
 C            3.04166808        0.49146734       -0.78813268
 C            2.04037701        2.54279856       -1.28580236
 C            0.63869359        3.39757731        0.45537470
 C           -0.64784028        3.08087529        1.04472444
 C            0.82989695        3.11325792       -0.89161130
 C           -2.18903626        1.25470839        0.75098710
 C           -1.56706042        2.40845651        0.26032072
 C           -3.22535281       -0.83740667        0.16012406
 C           -3.02596887        0.51342467       -0.09528079
 C           -2.32040140       -2.90888826       -0.48720344
 C           -3.13524274       -1.78806169       -0.93781993
 C            0.02054986       -3.45842380       -0.90712389
 C           -1.36736160       -3.44758530       -1.33343635
 C            1.63012926       -1.77046529       -1.63876942
 C            0.80653748       -2.84723220       -1.96270121
 C            2.50243836        0.41884832       -2.13402655
 C            2.09879726        1.76255924       -2.51073108
 C            1.70229205       -0.66136412       -2.49340137
 C            1.08542544        1.91363594       -3.44056677
 C           -0.29177396        2.94723133       -1.70836208
 C           -1.52090841        2.62162739       -1.11169176
 C           -0.07604222        2.69457559       -3.06227157
 C           -3.29303143        0.98014145       -1.38217890
 C           -2.58049386        2.14363908       -1.86921655
 C           -3.02008385       -1.30408803       -2.24033410
 C           -3.36399959        0.02402326       -2.47916261
 C           -1.39231653       -3.08882157       -2.73728688
 C           -0.02677430       -2.78454809       -3.14227146
 C           -2.23313899       -1.98653532       -3.17158168
 C            0.82241797       -0.52732784       -3.57916473
 C            0.58436109        0.73477152       -4.12102608
 C           -0.05875304       -1.55516879       -3.90164811
 C           -1.45732142       -1.23969948       -4.15002972
 C           -1.17225387        2.27509369       -3.91375863
 C           -2.45950744        2.02704664       -3.30836441
 C           -2.88164559        0.68652830       -3.68015774
 C           -0.75345435        1.05788652       -4.59245735
 C           -1.80946345        0.07089475       -4.44039731
