   70
C70 / DATE: 7/ 1/2024 / Origin: Program Fullerene / C70 from database
 C            1.38582539       -0.14316663        4.50835692
 C            2.63335628       -0.32420900        3.79093826
 C            2.58440428       -1.62460751        3.14646016
 C            0.53150491       -1.28527744        4.21322575
 C            1.23643894       -2.13966440        3.28390385
 C           -0.77057337       -0.77970709        3.83365391
 C            0.60621141        1.05904587        4.27619228
 C           -0.77700834        0.64696480        4.10394718
 C            1.12477780        2.07452593        3.47696036
 C            3.02187215        0.65116309        2.78722734
 C            2.32853075        1.84864737        2.68537029
 C            3.12140318       -1.48098258        1.80465732
 C            3.37216097       -0.07028737        1.57523095
 C            2.53537231       -2.20575259        0.77385499
 C            0.59227174       -2.57033996        2.13184224
 C            1.38073608       -2.94373893        1.05064748
 C           -1.37595187       -1.24741479        2.66952498
 C           -0.75194885       -2.24634703        1.90559085
 C           -2.43423907       -0.51486642        2.12931502
 C           -1.64533196        1.45207876        3.38161660
 C           -2.59256385        0.82289852        2.47657835
 C            0.22260763        2.89531847        2.68492672
 C           -1.14197987        2.64864036        2.72223206
 C            2.11295876        2.43071842        1.37328244
 C            0.85845536        3.15890865        1.40388883
 C            3.04933887        0.45657992        0.32624059
 C            2.43753586        1.71350983        0.22639802
 C            2.75765936       -1.77555625       -0.53357004
 C            2.99570471       -0.41573484       -0.76341630
 C            2.35506684       -2.60441020       -1.57710307
 C            0.77831420       -3.65942822        0.02897093
 C            1.39481498       -3.64940210       -1.28414729
 C           -1.37981825       -2.73374457        0.75076260
 C           -0.65667981       -3.52156342       -0.14571162
 C           -3.08202784       -0.98081937        0.99642871
 C           -2.55888035       -2.14327571        0.30737093
 C           -3.54406253       -0.02769077       -0.00417204
 C           -2.91767207        1.78798242        1.44082948
 C           -1.92619328        2.84846817        1.51707672
 C           -3.32237527        1.33663675        0.18515950
 C            0.08814766        3.20454682        0.24478055
 C           -1.30925342        3.26122594        0.34247899
 C            1.85913216        2.09945814       -0.98312472
 C            0.69134195        2.87106640       -0.97334486
 C            2.82418731        0.12066494       -2.03555801
 C            2.25443897        1.44876246       -2.14829935
 C            2.00436336       -2.03424083       -2.86561156
 C            2.27558001       -0.69544095       -3.10587437
 C            0.33694932       -3.57799074       -2.27586801
 C           -0.92117887       -3.40086653       -1.57300160
 C            0.72537421       -2.60021411       -3.27275699
 C           -2.76843258       -1.94929620       -1.11966980
 C           -3.33378702       -0.62292540       -1.31527455
 C           -1.82832172       -2.44243011       -2.01768931
 C           -2.89238215        0.16941169       -2.36841412
 C           -3.07858286        2.14928427       -0.92218658
 C           -2.07380448        3.19809524       -0.81604403
 C           -2.95586179        1.55415407       -2.24389564
 C            0.00821040        3.11154687       -2.16178640
 C           -1.42053116        3.32508352       -2.10182809
 C           -2.04870219        2.38568949       -3.01570924
 C            1.40126917        1.47393738       -3.32469920
 C            1.32123772        0.11741452       -3.84401077
 C            0.27386584        2.28224151       -3.32364508
 C           -0.99941435        1.74838625       -3.78699823
 C           -0.25303922       -1.77312147       -3.80654360
 C           -1.57851751       -1.74389672       -3.20004981
 C           -2.11678831       -0.40273903       -3.37607867
 C            0.08699045       -0.41593006       -4.19969251
 C           -1.11250706        0.39402249       -4.07014665
