   70
C70 / DATE: 7/ 1/2024 / Origin: Program Fullerene / C70 from database
 C            1.72547995       -0.13146991        4.40554477
 C            0.88770460       -1.30816673        4.26088040
 C            1.55797897       -2.21033644        3.34865569
 C            2.70551234       -0.16018572        3.33548836
 C            2.63657711       -1.46537476        2.71342936
 C            2.49589165        1.00544354        2.49990634
 C            0.88597979        1.03067750        4.19585831
 C            1.44765519        1.80678654        3.10556059
 C           -0.45660274       -0.86804255        3.92756853
 C           -0.48581746        0.57874589        4.05717118
 C           -1.11838709       -1.46855173        2.85401551
 C            0.77079922       -3.02447671        2.54766456
 C           -0.63193481       -2.67430547        2.35348676
 C            1.29098894       -3.42897637        1.25431725
 C            2.77389133       -1.55714443        1.33309870
 C            2.37500347       -2.74218121        0.71937892
 C            2.49257077        0.84372807        1.12027382
 C            2.85334032       -0.38560793        0.56384418
 C            1.81563340        1.77060585        0.33370113
 C            0.55488879        2.46868409        2.27179947
 C            0.87605865        2.63109005        0.92337331
 C           -1.30551424        1.29388410        3.20018579
 C           -0.79021830        2.45644055        2.62873755
 C           -2.00840502       -0.70644562        2.08867874
 C           -2.28722536        0.59962994        2.49903395
 C           -2.34014974       -1.10375357        0.78380346
 C           -1.01170143       -3.10104351        1.01996474
 C            0.15425642       -3.71022505        0.39593448
 C           -1.84637333       -2.29974190        0.25486635
 C            0.32420730       -3.61306896       -0.98292858
 C            2.64532498       -2.90591337       -0.62894838
 C            1.62543672       -3.50900970       -1.47281748
 C            2.96434099       -0.49564875       -0.82381030
 C            3.16319772       -1.76927659       -1.35855898
 C            1.93118164        1.68791179       -1.05246705
 C            2.51072344        0.55547403       -1.63707759
 C            1.23347417        2.58838382       -1.85217553
 C            0.01474724        3.39040009        0.12332143
 C            0.18430684        3.39774121       -1.25901947
 C           -1.66041336        3.26689203        1.91847071
 C           -1.20604391        3.81616774        0.65203289
 C           -3.22845403        1.34723485        1.80101539
 C           -3.01353207        2.78074927        1.72209661
 C           -3.00704596       -0.21433824       -0.06062680
 C           -3.63483057        0.89698174        0.48257508
 C           -2.73326644       -0.23503966       -1.42769523
 C           -1.86692983       -2.49791835       -1.12298624
 C           -0.74862794       -3.17595554       -1.76213813
 C           -2.29498805       -1.41842628       -1.99607260
 C           -0.52076074       -2.53275028       -3.05050399
 C           -1.38015632       -1.35887813       -3.12121825
 C            1.86083218       -3.04034731       -2.82743209
 C            2.90751209       -2.03044597       -2.76024434
 C            0.75784711       -2.48516891       -3.58593558
 C            2.40099760        0.38783055       -3.02069111
 C            2.51851861       -0.93122882       -3.60744649
 C            1.22391128       -1.25324768       -4.19284951
 C            0.74304697        2.15254022       -3.14833870
 C           -0.86260703       -0.12382025       -3.51209803
 C            1.29750046        1.02116181       -3.71133468
 C            0.40362007       -0.05685638       -4.09678542
 C           -0.98481016        3.29215007       -2.12741697
 C           -2.50247464        0.96327363       -2.10513837
 C           -0.69927953        2.23068459       -3.06916378
 C           -1.43306027        1.04715875       -3.00316014
 C           -2.36029433        3.89850339       -0.22707795
 C           -3.47550069        3.24013363        0.42721271
 C           -3.80975352        2.06728440       -0.35899343
 C           -2.24495209        3.34209566       -1.55858739
 C           -3.06082735        2.13689937       -1.60120844
