   70
C70 / DATE: 7/ 1/2024 / Origin: Program Fullerene / C70 from database
 C            1.31422773       -0.08164414        4.53158311
 C            2.61090365       -0.24055601        3.90254872
 C            2.62250574       -1.53071176        3.23916277
 C            0.48896618       -1.21501112        4.14717202
 C            1.29042442       -2.09851270        3.32576240
 C           -0.74708193       -0.70262503        3.59695784
 C            0.56226642        1.12872313        4.26448006
 C           -0.73762478        0.74292195        3.72593521
 C            1.22216870        2.21592955        3.70809761
 C            3.05210256        0.75778836        2.94112888
 C            2.42798345        1.99446986        2.91290326
 C            3.19188542       -1.34748818        1.91756339
 C            3.31788944        0.07958577        1.68242203
 C            2.69677538       -2.11976391        0.88097330
 C            0.74080784       -2.62243629        2.16102915
 C            1.61440419       -2.96434731        1.13588309
 C           -1.23686831       -1.25083766        2.42469566
 C           -0.59118711       -2.34371289        1.83251023
 C           -2.12509298       -0.49715698        1.67319793
 C           -1.33161785        1.52264466        2.72751538
 C           -2.02887861        0.89799742        1.68314629
 C            0.42851747        3.20474880        3.01091053
 C           -0.90450341        2.83467270        2.56708179
 C            2.21932139        2.63371985        1.62790708
 C            1.17617034        3.60821800        1.83148624
 C            2.83551041        0.60645617        0.47781014
 C            2.20731360        1.85783667        0.46583418
 C            2.84988644       -1.62921435       -0.40768021
 C            2.69231851       -0.25217122       -0.61467281
 C            2.64897089       -2.52097933       -1.45088914
 C            1.11360910       -3.72367657        0.08868201
 C            1.80041622       -3.66811185       -1.19058906
 C           -1.13120605       -2.90094882        0.66393657
 C           -0.31544656       -3.66785148       -0.17148970
 C           -2.84435263       -1.13943205        0.68597626
 C           -2.31425578       -2.37747939        0.14136496
 C           -3.40747828       -0.36826497       -0.39966332
 C           -2.47352749        1.64585553        0.57487872
 C           -3.18102646        1.00469849       -0.46072631
 C           -1.09621863        3.47979905        1.29109088
 C            0.22357274        3.79773368        0.77086673
 C           -2.00839117        2.95916409        0.38692448
 C            1.38877442        2.22683114       -0.61860684
 C            0.52758966        3.33280994       -0.50078197
 C            2.07208174        0.21674632       -1.77494497
 C            1.27411782        1.35955437       -1.71672916
 C            2.31393745       -2.01239075       -2.76115247
 C            1.99174667       -0.60507584       -2.89301659
 C            0.79986622       -3.72959509       -2.23933695
 C           -0.50204765       -3.59268082       -1.61524975
 C            1.17909131       -2.77939636       -3.25743583
 C           -2.49776042       -2.33582563       -1.30085441
 C           -3.31048201       -1.17597975       -1.60907056
 C           -1.43714389       -2.69484919       -2.12939230
 C           -3.14445257       -0.54987394       -2.83006949
 C           -3.39420641        1.65549283       -1.67737899
 C           -3.35878585        0.88463111       -2.90838463
 C           -1.85147774        3.42030536       -0.91174345
 C           -0.49346436        3.48928153       -1.42615256
 C           -2.69318810        2.88760384       -1.94920265
 C            0.33150938        1.60131058       -2.72916639
 C           -2.30685575        1.44711873       -3.74221469
 C           -0.47013212        2.73357820       -2.65481505
 C           -1.84853897        2.66373015       -3.11047516
 C            0.81842596       -0.52177634       -3.73586103
 C            0.18760795       -1.83038595       -3.70864752
 C           -1.13211390       -1.91929146       -3.26303369
 C           -1.96954743       -0.86537639       -3.62551981
 C           -0.00588610        0.58702576       -3.63491019
 C           -1.34282548        0.39644786       -3.97956126
