   70
C70 / DATE: 7/ 1/2024 / Origin: Program Fullerene / C70 from database
 C            1.54629698        0.11197794        4.83294952
 C            0.78141115       -1.11672837        4.74940533
 C            1.61618379       -2.09741545        4.09238527
 C            2.69179708       -0.02549671        3.94716642
 C            2.74851289       -1.39942624        3.50328513
 C            2.59266224        1.01262471        2.94481194
 C            0.71648566        1.18373421        4.31247879
 C            1.47816860        1.87266214        3.29254225
 C           -0.50979264       -0.80643155        4.15590842
 C           -0.56439069        0.62823177        3.92501681
 C           -1.03779086       -1.65331594        3.18544308
 C            1.01607159       -2.89253266        3.04650931
 C           -0.35732554       -2.83779883        2.85282420
 C            2.73704445       -1.67289401        2.07433048
 C            1.85756573       -2.80156525        1.86533040
 C            2.76542666        0.70281737        1.59899374
 C            2.68852289       -0.62584321        1.16280390
 C            2.43801214        1.69291955        0.68656404
 C            0.78360192        2.44934646        2.23778331
 C            1.47897658        2.64224906        1.04902786
 C           -1.14150439        1.10216494        2.74929452
 C           -0.59311926        2.24043083        2.15302037
 C           -1.97271831       -1.12154382        2.29115460
 C           -1.92240448        0.23964264        1.97275831
 C           -2.68983328       -1.98940854        1.47699878
 C           -0.82590163       -3.58232830        1.78248229
 C           -2.16065762       -3.32195615        1.29317430
 C            1.23865256       -2.96852721        0.62727087
 C            0.05235410       -3.69431004        0.62512582
 C            2.24058026       -0.88965732       -0.13623260
 C            1.44691793       -2.01907789       -0.38541083
 C            2.61319080        1.41905393       -0.65784014
 C            2.33336228        0.12051206       -1.09619068
 C            2.49122716        2.48814967       -1.52879655
 C            0.87690746        3.39978063        0.04662974
 C            1.55190494        3.53397048       -1.16448078
 C           -1.27187661        2.81563369        1.08675923
 C           -0.51288397        3.53263209        0.07217037
 C           -2.45274659        0.69597246        0.75935700
 C           -2.27879657        2.02624897        0.39872486
 C           -3.16364519       -1.52342791        0.18391091
 C           -2.87482605       -0.21770798       -0.20623216
 C           -2.15963618       -3.60486691       -0.12625768
 C           -0.77472923       -3.70252888       -0.55815452
 C           -2.99935901       -2.61293232       -0.76853346
 C            0.70995122       -2.09688988       -1.57766601
 C           -0.39214254       -2.96671993       -1.67046277
 C            1.82323128       -0.09827049       -2.38090043
 C            0.97324546       -1.18432711       -2.61174586
 C            2.35824966        2.22780127       -2.94162135
 C            1.92945397        0.90601595       -3.34947758
 C            0.80134487        3.88173479       -2.35496759
 C            1.41503303        3.19499097       -3.47756569
 C           -1.27717399        3.45422735       -1.16527881
 C           -2.23440519        2.37401301       -1.01153985
 C           -0.62277833        3.60778241       -2.37567675
 C           -2.76160085        0.09618253       -1.56838518
 C           -2.29047745        1.35704278       -1.96035239
 C           -2.70063559       -2.29236115       -2.08043183
 C           -1.39872453       -2.69257344       -2.58886161
 C           -2.87572148       -0.92225607       -2.51041876
 C            0.16545898       -1.17046092       -3.75047443
 C           -1.10965235       -1.84639874       -3.71723942
 C           -2.13716107       -0.81282099       -3.74727153
 C            0.85346380        1.08694138       -4.31202929
 C            0.37650960        2.44846621       -4.15642847
 C           -0.87399760        2.65185469       -3.44175777
 C           -1.68091544        1.53642497       -3.21450551
 C           -0.10086306        0.09343745       -4.40268694
 C           -1.46759215        0.43312886       -4.03851689
