   70
C70 / DATE: 7/ 1/2024 / Origin: Program Fullerene / C70 from database
 C            1.23290785       -0.05420568        4.45724439
 C            2.50113405       -0.33115535        3.82975026
 C            2.41242661       -1.66955241        3.26945402
 C            0.38385052       -1.21932040        4.24481842
 C            1.01264433       -2.02192186        3.22344072
 C           -0.94458463       -0.72415957        3.99258792
 C            0.47477605        1.09013569        4.00008848
 C           -0.90765298        0.71550645        4.19836243
 C            0.83179629        1.71664041        2.80487519
 C            2.95480737        0.54153838        2.76389766
 C            2.12495881        1.55345202        2.28368998
 C            3.13423798       -1.65435972        2.02514677
 C            3.64317233       -0.30899728        1.81055214
 C            2.58831828       -2.30073880        0.93319753
 C            0.39478061       -2.15246244        1.97617448
 C            1.18603725       -2.41636950        0.84885146
 C           -1.65306770       -1.20889028        2.89914807
 C           -0.94607776       -1.76113961        1.81396969
 C           -2.88812279       -0.61610487        2.67747316
 C           -1.88602130        1.46901900        3.57690695
 C           -3.06183890        0.75794863        3.11901637
 C           -0.17488213        2.28252777        2.01097748
 C           -1.48006237        2.34449862        2.48527809
 C            0.06497218        2.54257241        0.66554530
 C            2.43437202        2.10851108        1.04662462
 C            1.37339568        2.69008055        0.24522933
 C            3.79840039        0.12477149        0.49309710
 C            3.33520877        1.39518747        0.14782198
 C            3.31732221       -2.16061105       -0.23228176
 C            3.90053249       -0.85339774       -0.49770240
 C            2.76914058       -2.67185470       -1.45935916
 C            0.56880552       -2.56699073       -0.39968567
 C            1.34037306       -2.87207910       -1.52072283
 C           -1.52941784       -1.79327006        0.53515803
 C           -0.74868187       -2.13788699       -0.57921204
 C           -3.52244326       -0.73831694        1.38598859
 C           -2.87392003       -1.43144527        0.36801391
 C           -3.60999156        1.50601211        2.01072073
 C           -2.57117423        2.39614005        1.52616562
 C           -4.15460759        0.54279912        1.08178513
 C           -0.96152574        2.39563018       -0.27484506
 C           -2.29372958        2.39637196        0.15838357
 C           -0.65291647        2.19142830       -1.63375373
 C            1.69835449        2.48602858       -1.14805697
 C            2.90503244        1.67259161       -1.21547673
 C            0.68354378        2.26034510       -2.06822879
 C            3.61411444       -0.52523597       -1.88427652
 C            3.13487519       -1.74447548       -2.51400468
 C            3.00959889        0.69103417       -2.19818456
 C            0.90950010       -2.40870851       -2.82461595
 C            2.01248624       -1.65774156       -3.41886613
 C           -1.26018847       -2.00584509       -1.87919178
 C           -0.38786744       -1.93621730       -2.96784772
 C           -3.40614461       -1.32217620       -0.91301434
 C           -2.57778625       -1.60753162       -2.06609967
 C           -4.22220830        0.92011100       -0.24514382
 C           -3.29214711        1.94952747       -0.70391832
 C           -4.18735042       -0.13932508       -1.22697236
 C           -1.66593734        1.83674563       -2.54169999
 C           -2.87144034       -0.60790619       -3.08604628
 C           -2.96631187        1.66101275       -2.08390103
 C           -3.64873702        0.42851087       -2.44129441
 C           -0.66430225       -1.04187973       -4.00085719
 C           -1.32790515        1.15964154       -3.71093000
 C           -1.83191480       -0.19344287       -3.89882458
 C            1.05344018        1.69725227       -3.28559664
 C            2.18367872        0.78180142       -3.32066858
 C            1.74400999       -0.43073194       -4.00241141
 C            0.04068301        1.17568939       -4.17092837
 C            0.40327140       -0.19461558       -4.49481612
