   70
C70 / DATE: 7/ 1/2024 / Origin: Program Fullerene / C70 from database
 C            1.48243132        0.05771683        4.87574339
 C            0.71875357       -1.10122669        4.46448730
 C            1.44079643       -1.77970473        3.40250760
 C            2.66479834        0.11536751        4.03861390
 C            2.56496835       -0.93920515        3.03828414
 C            2.78449233        1.48148672        3.58393091
 C            0.67909056        1.23399226        4.57768473
 C            1.51634877        2.15148939        3.84569702
 C           -0.62705688       -0.65452109        4.16547049
 C           -0.55427956        0.78011471        3.96365643
 C           -1.33429179       -1.38398011        3.22807798
 C            0.67376913       -2.35568293        2.39862043
 C           -0.69056039       -2.47173121        2.64081418
 C            1.09883429       -2.27928039        1.06802692
 C            2.76940825       -0.62757161        1.69510614
 C            2.10927333       -1.37906962        0.70950435
 C            3.09357528        1.70048475        2.18984862
 C            3.33844499        0.60945230        1.36308568
 C            1.03671231        2.66983299        2.57896308
 C            2.18278804        2.71685594        1.69818992
 C           -0.96819005        1.29618391        2.73027242
 C           -0.17541466        2.23572254        2.05015814
 C           -2.27145671       -0.70444029        2.45857400
 C           -1.94967486        0.58573322        2.02296546
 C           -3.15511974       -1.48150344        1.72413472
 C           -1.43073313       -3.26062147        1.77894944
 C           -2.81581390       -2.88496304        1.56756248
 C            0.27542261       -2.82580145        0.07635234
 C           -0.86030092       -3.53597101        0.47205505
 C            0.40000219       -2.38743419       -1.24950419
 C            2.37926705       -1.13878868       -0.64032715
 C            1.54001185       -1.66993928       -1.62729928
 C            3.52520036        0.90940921        0.02506088
 C            3.25133432       -0.10599870       -0.96674766
 C            1.96884921        2.75824900        0.32640069
 C            2.92374898        2.13914784       -0.46712010
 C           -0.40748712        2.46074531        0.69698888
 C            0.65782815        2.80282538       -0.15174645
 C           -2.30606890        0.99798370        0.73206244
 C           -1.62659539        2.07182768        0.15446133
 C           -3.62763512       -0.99905967        0.44166390
 C           -3.11191104        0.18302685       -0.07229094
 C           -3.18438329       -3.29948273        0.23146158
 C           -1.96228170       -3.68293452       -0.45503264
 C           -3.72163617       -2.13776617       -0.45097635
 C           -0.69745679       -2.43538870       -2.12732096
 C           -1.91244672       -2.94178710       -1.69130497
 C           -3.05097357       -2.04262145       -1.72948455
 C           -0.74502026       -1.52556042       -3.17685593
 C            1.65428522       -1.22836325       -2.95185411
 C            0.45815831       -1.17982565       -3.77184064
 C            3.08038934        0.60240172       -2.21783857
 C            2.64853442        1.94991254       -1.87354003
 C            2.44094099       -0.04308578       -3.25864740
 C            0.44048021        2.85137234       -1.53262041
 C            1.45776301        2.43112720       -2.40893823
 C           -1.94111100        2.47139172       -1.13985673
 C           -0.87328158        2.98428492       -1.97855626
 C           -3.07068770        0.34010924       -1.45863121
 C           -2.82844988       -0.78072742       -2.26340631
 C           -1.86042975       -0.67817572       -3.25952620
 C           -2.76069683        1.59805897       -1.95937604
 C           -1.21646207        2.68627422       -3.35447728
 C           -1.80482713        0.51061294       -3.97987333
 C           -2.29210039        1.71003478       -3.33085730
 C            0.53806304       -0.01588207       -4.63060905
 C            1.67196310        0.77013411       -4.18568935
 C            1.15831097        2.04449039       -3.71489421
 C           -0.60419664        0.86893186       -4.70573876
 C           -0.18600698        2.18131071       -4.23265439
