   70
C70 / DATE: 7/ 1/2024 / Origin: Program Fullerene / C70 from database
 C            1.22076575        0.10712573        4.73934684
 C            2.46843227       -0.00962597        4.01836611
 C            2.52463497       -1.36453361        3.50913844
 C            0.40586524       -1.05108402        4.38296914
 C            1.16871242       -1.85639862        3.45268109
 C           -0.89083847       -0.56212928        3.97339827
 C            0.41680099        1.28715945        4.51076556
 C           -0.94973713        0.83612586        4.33309468
 C            0.72937918        2.13706275        3.37267577
 C            2.71209491        0.87357226        2.88660266
 C            1.71134658        1.74325079        2.46595547
 C            3.24956553       -1.31101173        2.26815403
 C            3.42041169        0.08686160        1.90160143
 C            2.86750346       -2.16189226        1.25016329
 C            0.63476716       -2.15725786        2.19908177
 C            1.50548922       -2.51066217        1.15976868
 C           -1.39944415       -0.92468036        2.73305193
 C           -0.68181743       -1.79222079        1.89364411
 C           -2.43253655       -0.15520292        2.19619025
 C           -1.57430399        1.73696720        3.38854198
 C           -0.53796314        2.61990158        2.86823226
 C           -2.48487203        1.21895460        2.47502469
 C           -0.63561006        3.01370717        1.53934748
 C            1.50017726        1.94879175        1.09831455
 C            0.44393554        2.77219061        0.68190422
 C            3.31047828        0.40664958        0.54964218
 C            2.30398586        1.29631748        0.14438359
 C            3.56193621       -1.96451735        0.07338938
 C            3.72999786       -0.58128527       -0.34494044
 C            3.18484055       -2.74032286       -1.07694869
 C            0.96846080       -2.87545135       -0.08370029
 C            1.84192541       -3.26957249       -1.09708763
 C           -1.21075589       -2.11857309        0.64120358
 C           -0.35942431       -2.53566248       -0.38886387
 C           -3.13218935       -0.67122274        1.11366033
 C           -2.51783254       -1.73903915        0.34478894
 C           -3.79662730        0.22738345        0.18503347
 C           -2.89003970        2.09306080        1.47395889
 C           -1.92013329        3.06689194        1.00450673
 C           -3.61932932        1.59578983        0.32551208
 C           -2.10721150        3.23717982       -0.42273307
 C           -3.22905917        2.39978252       -0.82361237
 C            0.32748799        3.10668274       -0.66506148
 C           -0.98957973        3.33639890       -1.23858036
 C            1.98044430        1.39347882       -1.21457110
 C            1.11907601        2.38843259       -1.64457501
 C            3.32873185       -0.51116214       -1.73606596
 C            3.32028698       -1.87395561       -2.23144698
 C            2.30054731        0.35455545       -2.08688058
 C            1.41532066       -3.21109278       -2.47509414
 C            2.28734998       -2.26108629       -3.15943208
 C           -0.81930235       -2.53440146       -1.72061854
 C            0.05673227       -2.81576928       -2.76528677
 C           -2.92021767       -1.57840404       -1.03834506
 C           -3.73519985       -0.37330229       -1.13504625
 C           -2.01253608       -1.88384768       -2.04345113
 C           -3.25117553        1.83925412       -2.09420789
 C           -3.62593609        0.44228955       -2.25524979
 C           -1.01319934        2.74766451       -2.56704704
 C            0.28743394        2.13725005       -2.80806114
 C           -2.16682283        2.12071995       -3.02270428
 C            1.45699854        0.05967098       -3.17084538
 C            1.42598063       -1.23269024       -3.70089039
 C            0.14018777       -1.87144133       -3.86265178
 C            0.37947951        0.90494804       -3.45399698
 C           -2.13936250       -1.27347721       -3.29321920
 C           -2.93242705       -0.06469877       -3.42135385
 C           -2.04398427        0.98202350       -3.90921672
 C           -0.95014973       -1.05873633       -4.09429263
 C           -0.73794654        0.37831582       -4.10801500
