   70
C70 / DATE: 7/ 1/2024 / Origin: Program Fullerene / C70 from database
 C            1.53504609       -0.07680093        4.65860717
 C            0.74474230       -1.26108341        4.38249734
 C            1.37240997       -1.98400841        3.28921514
 C            2.66916378       -0.08513118        3.75573180
 C            2.58083243       -1.26930694        2.91775190
 C            2.71389306        1.20621394        3.10207612
 C            0.72037274        1.07910664        4.32308422
 C            1.40739135        1.82141463        3.28615313
 C           -0.63140078       -0.83899608        4.22144343
 C           -0.62087524        0.60731304        4.05272086
 C           -1.44272884       -1.58784516        3.38117955
 C            0.56543806       -2.50706919        2.28412342
 C           -0.81804577       -2.53219706        2.46502158
 C            1.07614932       -2.62710697        0.99359483
 C            2.90644723       -1.15058232        1.56934781
 C            2.24249929       -1.94314057        0.63427357
 C            3.28699402        1.26400504        1.84449065
 C            3.53327960        0.01567294        1.13373344
 C            2.71676489        2.17069675        0.87191244
 C            0.68874378        2.23746627        2.16483147
 C            1.37846370        2.54578370        0.99258652
 C           -1.32775391        1.15282479        2.98663272
 C           -0.69762463        2.05979507        2.11836970
 C           -2.48969124       -0.90816061        2.63872834
 C           -2.46903874        0.48053595        2.55443414
 C           -1.68632146       -2.65900611        1.30322285
 C           -2.74627131       -1.67445665        1.42930037
 C            0.25202408       -3.13075836       -0.01015923
 C           -1.11874119       -2.87700186        0.05803598
 C            0.82112436       -3.43695064       -1.23859929
 C            2.56429357       -1.81679938       -0.71703201
 C            2.05086266       -2.75592286       -1.60425330
 C            3.55010631        0.32944983       -0.28843920
 C            3.21728847        1.73927144       -0.41782492
 C            3.01762073       -0.58208018       -1.19689319
 C            2.55290408        2.16642568       -1.55109259
 C            0.66703021        2.90281769       -0.15333606
 C            1.32289554        2.91937650       -1.38687341
 C           -1.41661465        2.57183136        1.03535404
 C           -0.72673123        2.99167926       -0.11239731
 C           -3.26349122        1.08146735        1.59142224
 C           -2.78362194        2.30031951        0.97842644
 C           -3.19457808       -0.99293370        0.30096015
 C           -3.77530402        0.25437738        0.51107962
 C           -1.79080868       -2.40823917       -1.07201351
 C           -2.64213306       -1.30375554       -0.95112850
 C           -0.03864593       -3.45953531       -2.40461475
 C           -1.30070226       -2.74875615       -2.33037201
 C            1.96959180       -2.41440547       -3.00789330
 C            0.71505661       -2.93057814       -3.52590975
 C            2.61658912       -0.12417106       -2.46013803
 C            2.34091513        1.22903842       -2.64012947
 C            2.06307725       -1.01757065       -3.37160941
 C            0.56032464        2.75860324       -2.61183544
 C            1.10537125        1.60348075       -3.30873842
 C           -1.41483762        3.28311805       -1.29446347
 C           -0.81051427        2.93150406       -2.56537335
 C           -3.51342924        2.44411696       -0.26494379
 C           -4.02724682        1.12722249       -0.61386868
 C           -2.82087900        2.96451190       -1.41817484
 C           -2.72277583       -0.39293806       -2.01478494
 C           -1.65916101        1.91675651       -3.16589694
 C           -3.47245122        0.76975254       -1.89831367
 C           -2.94315582        1.98339501       -2.48654463
 C           -1.29722473       -1.73402550       -3.36975040
 C           -0.03245353       -1.81124604       -4.06821908
 C            0.82434256       -0.64539634       -4.04428216
 C            0.25684513        0.59198899       -3.75331671
 C           -1.80181760       -0.48207768       -3.05410623
 C           -1.10982427        0.66869998       -3.45702098
