   70
C70 / DATE: 7/ 1/2024 / Origin: Program Fullerene / C70 from database
 C            1.25718604       -0.04465612        4.47340237
 C            2.58573800       -0.29302849        3.94670116
 C            2.59666385       -1.63710865        3.39746343
 C            0.44027553       -1.21193059        4.18368762
 C            1.22897712       -2.12771923        3.38932843
 C           -0.81541871       -0.74832031        3.64454442
 C            0.52812461        1.12844207        4.02266626
 C           -0.79928541        0.70084418        3.61184503
 C            1.18315624        2.09518551        3.27487754
 C            3.12139934        0.60164276        2.93619085
 C            2.49637468        1.81790972        2.70031317
 C            3.32041361       -1.60011103        2.14132052
 C            3.54510536       -0.20307756        1.80101051
 C            2.91878073       -2.46319114        1.13797423
 C            0.70512491       -2.62602947        2.19675843
 C            1.59897220       -3.07605212        1.22720845
 C           -1.37063125       -1.40235635        2.56078888
 C           -0.61445199       -2.32737968        1.82564353
 C           -2.42913551       -0.77351028        1.92896584
 C           -1.44256155        1.34253774        2.54975254
 C           -2.39574817        0.62370761        1.81111102
 C            0.42635361        2.85351073        2.29713317
 C           -0.89447962        2.51640880        2.01807725
 C            2.51150445        2.36497525        1.35642599
 C            1.31595925        3.17457289        1.19323862
 C            3.28503856        0.24362757        0.50139860
 C            2.94680066        1.58520426        0.29004649
 C            3.08699065       -2.04756754       -0.23739471
 C            3.16374916       -0.68874838       -0.53948112
 C            1.13419084       -3.29985773       -0.13150088
 C            2.20939213       -2.89203655       -1.02063724
 C           -1.08994269       -2.74270749        0.57236571
 C           -0.18114505       -2.98628089       -0.45793117
 C           -3.15365926       -1.53137924        1.02816903
 C           -2.42542217       -2.51267353        0.24915361
 C           -4.10917658       -0.88068292        0.16442936
 C           -3.11463068        1.26741654        0.79566750
 C           -4.04212936        0.55823829        0.03452746
 C           -1.46764065        3.08232775        0.88780466
 C           -2.65746585        2.48862964        0.31272687
 C            0.77824295        3.34320905       -0.08098319
 C           -0.60157709        3.49709814       -0.20807835
 C            2.64987057        2.02640828       -0.99172901
 C            1.52436662        2.93183625       -1.18517556
 C            2.83619982       -0.26890737       -1.83227777
 C            2.66167537        1.08639894       -2.09340903
 C            1.89224785       -2.48967199       -2.30308851
 C            2.39253211       -1.20703202       -2.76582389
 C           -0.49778027       -2.62340707       -1.77339668
 C            0.50983298       -2.57567447       -2.73240748
 C           -2.78421344       -2.30482252       -1.14197703
 C           -3.96414093       -1.45867876       -1.16124840
 C           -1.76408691       -2.10745192       -2.07025211
 C           -4.17165610        0.86563392       -1.37965357
 C           -4.02580897       -0.37860415       -2.11792593
 C           -2.61150544        2.72105654       -1.12343324
 C           -1.25974830        3.13003618       -1.45275315
 C           -3.27214665        1.84502275       -1.96629045
 C            0.84745362        2.54197922       -2.41337553
 C            1.65599435        1.52188354       -3.05354799
 C           -0.54169246        2.44728018       -2.43047281
 C            1.51939479       -0.78241803       -3.84651444
 C            0.36286781       -1.66564866       -3.84518147
 C            1.04012304        0.58713503       -3.86712900
 C           -1.92333106       -1.17850046       -3.11614300
 C           -2.92180489       -0.21321782       -3.03665446
 C           -2.52287715        1.18448903       -3.02256688
 C           -1.17597834        1.48903164       -3.23425453
 C           -0.82486207       -0.84408329       -3.89836383
 C           -0.41093886        0.55084379       -3.93166615
