   70
C70 / DATE: 7/ 1/2024 / Origin: Program Fullerene / C70 from database
 C            1.68008297        0.12828557        4.66352541
 C            0.83554948       -1.04085501        4.52588414
 C            1.36476826       -1.85390573        3.44437356
 C            2.64222003        0.10348318        3.57655677
 C            2.38855667       -1.07478679        2.77172458
 C            2.59249873        1.39291416        2.92491162
 C            0.83950574        1.29638630        4.47119875
 C            1.51281465        2.16341394        3.52741854
 C           -0.54084838       -0.58972179        4.42626144
 C           -0.49835109        0.83509944        4.14170764
 C           -1.41623388       -1.38099212        3.70471831
 C            0.46206587       -2.56042356        2.66411291
 C           -0.87953828       -2.55609768        3.04452233
 C            0.76792265       -2.77754571        1.32172750
 C            2.32757494       -0.93940455        1.38623724
 C            1.57381435       -1.85139940        0.64631161
 C            2.73767078        1.44932171        1.54515465
 C            2.71868715        0.26235961        0.79415623
 C            2.38750834        2.63983077        0.91707740
 C            0.72674792        2.93863491        2.68619650
 C            1.27583579        3.32385617        1.39873696
 C           -1.11699807        1.33489241        2.99198026
 C           -0.65395967        2.53191650        2.45169523
 C           -2.28423349       -0.74870342        2.72895075
 C           -1.93529821        0.49912780        2.22309040
 C           -1.87717485       -2.96679403        2.07906970
 C           -2.70662011       -1.79476093        1.81445867
 C           -0.06560540       -3.61966744        0.59713635
 C           -1.46021632       -3.73161348        1.00287855
 C           -0.02276113       -3.59122909       -0.84911558
 C            1.46175576       -1.69108080       -0.74251325
 C            0.74027208       -2.62596919       -1.49665713
 C            2.76910237        0.35047968       -0.59668817
 C            2.06180184       -0.58443950       -1.37081180
 C            2.69444594        2.77529106       -0.42497745
 C            3.10953965        1.58639611       -1.13841692
 C            1.72054038        3.42390689       -1.27983075
 C            0.15673053        3.54686554        0.49808562
 C           -0.98714847        2.87203574        1.08127914
 C            0.38782506        3.43011941       -0.86958386
 C           -2.15000057        0.77112883        0.86456952
 C           -1.68458416        1.96537552        0.30261480
 C           -3.01201395       -1.46863830        0.49670438
 C           -2.83730168       -0.15139761        0.06159917
 C           -2.26607126       -3.69035325       -0.19853613
 C           -1.37140530       -3.84535652       -1.32681106
 C           -3.06096846       -2.50239957       -0.43997148
 C           -1.88389804       -3.02189105       -2.40562192
 C           -2.96054264       -2.20342759       -1.85763772
 C            0.42516532       -2.34151247       -2.81963902
 C           -0.96085748       -2.43623151       -3.25815536
 C            1.90221701       -0.38861014       -2.75544593
 C            1.00663068       -1.18501085       -3.45779308
 C            2.88416507        1.84700405       -2.54198070
 C            2.06078232        3.04728122       -2.63542506
 C            2.25213847        0.82608474       -3.33906978
 C            0.98721807        2.77519751       -3.56419561
 C            1.27584124        1.49475082       -4.18198885
 C           -0.58274908        2.81543146       -1.67471000
 C           -1.63535328        2.10685785       -1.08015645
 C           -0.36552375        2.69896807       -3.05012085
 C           -3.10785075        0.16630018       -1.26931641
 C           -3.09932649       -0.88644813       -2.27244570
 C           -2.49411853        1.34260340       -1.85900118
 C           -1.29097063       -1.18268796       -3.91031292
 C           -0.03326110       -0.54778218       -4.25628202
 C            0.00828071        0.82941759       -4.41740120
 C           -1.02995092        1.64328303       -3.79532323
 C           -2.33079707       -0.40659643       -3.41031726
 C           -2.13574432        1.02343261       -3.23037281
