   70
C70 / DATE: 7/ 1/2024 / Origin: Program Fullerene / C70 from database
 C            1.49514765        0.04049779        4.72961917
 C            0.69494929       -1.16842253        4.62451449
 C            1.45657107       -2.13820163        3.87405617
 C            2.64458340       -0.11671408        3.85678838
 C            2.68940794       -1.49699622        3.43718064
 C            2.56882344        0.90624199        2.83243684
 C            0.69789097        1.14159956        4.21662743
 C            1.39281020        1.71927750        3.08961762
 C           -0.61083291       -0.78936145        4.12658293
 C           -0.64175555        0.65288237        3.99401966
 C           -1.22255419       -1.53393201        3.12031270
 C            0.84422855       -2.74636719        2.70698605
 C           -0.46997537       -2.44842708        2.36167674
 C            2.84369608       -1.77517409        2.02373726
 C            1.84034001       -2.75329927        1.65728028
 C            2.85966293        0.58911284        1.50792259
 C            3.09278797       -0.73842897        1.12470131
 C            2.43614355        1.48312363        0.53147677
 C            0.64652846        2.14572273        1.99515143
 C            1.29126089        2.25168385        0.76915954
 C           -1.36742514        1.16273711        2.92785232
 C           -0.74812800        2.02407495        2.00855968
 C           -2.36220772       -0.98097134        2.53779082
 C           -2.45873812        0.41907171        2.49734942
 C           -3.03282094       -1.75523610        1.59813383
 C           -0.88837605       -2.76552361        1.06643176
 C           -2.23686953       -2.61785753        0.75165199
 C            1.42478388       -2.76042863        0.33371403
 C            0.05838707       -2.82376304        0.03175296
 C            2.99892678       -1.04704253       -0.23413899
 C            2.27885578       -2.19104920       -0.60213482
 C            2.85938661        1.28419157       -0.77618759
 C            3.17139461       -0.02215031       -1.16738280
 C            2.51478870        2.24939272       -1.71708127
 C            0.60853541        2.81946807       -0.30157095
 C            1.29552671        3.00722702       -1.50217711
 C           -1.47269586        2.43224723        0.87858155
 C           -0.79040273        2.85209489       -0.27351574
 C           -3.34871200        1.04658846        1.63807524
 C           -2.83494157        2.11523103        0.80091015
 C           -4.07814348       -1.16922676        0.78397557
 C           -4.27776622        0.25945749        0.85289829
 C           -2.61184848       -2.33571672       -0.62156373
 C           -3.80238603       -1.51673522       -0.60179504
 C           -0.35359224       -2.60706186       -1.29160791
 C           -1.60411674       -2.05002766       -1.52686545
 C            1.99031942       -2.41397755       -1.93845315
 C            0.59390475       -2.54413731       -2.30588941
 C            3.25821602       -0.36346582       -2.51687359
 C            2.64245716       -1.60087640       -2.94414298
 C            2.61982243        1.96222761       -3.13217037
 C            2.96996565        0.62064243       -3.54087039
 C            0.56614827        3.03559670       -2.76025898
 C            1.33724482        2.28140566       -3.73249613
 C           -1.49523779        3.00253486       -1.46727648
 C           -0.80181150        2.83732668       -2.72790464
 C           -3.49072940        2.01141283       -0.49477261
 C           -4.25212615        0.77477598       -0.50286868
 C           -3.81178078       -0.29750310       -1.37974609
 C           -2.76422149        2.32669415       -1.62772795
 C           -1.71849890       -0.95871039       -2.40290739
 C           -1.34321405        1.63322077       -3.34520371
 C           -2.76665641       -0.03892560       -2.26302174
 C           -2.54628681        1.28454774       -2.62047383
 C            0.35145961       -1.63419305       -3.40977927
 C            1.64649215       -1.26849236       -3.94940013
 C            1.87144926        0.10101485       -4.34489818
 C            0.77672067        1.04095966       -4.23652282
 C           -0.65761699       -0.67783913       -3.27626060
 C           -0.46714905        0.63195131       -3.75158509
