   70
C70 / DATE: 7/ 1/2024 / Origin: Program Fullerene / C70 from database
 C            1.04852415        0.04698837        4.65292031
 C            2.28361558       -0.27815350        3.97822268
 C            2.26388361       -1.70638180        3.72123146
 C            0.24073534       -1.16732298        4.69994315
 C            0.88213499       -2.12738758        3.83053948
 C           -1.12410346       -0.79056459        4.41458410
 C            0.20776101        1.08720080        4.09841331
 C           -1.14646686        0.65843958        4.34865844
 C            0.49793451        1.63939775        2.84628464
 C            2.57251945        0.36796672        2.71601387
 C            1.64265026        1.23275002        2.14281993
 C            2.93507744       -1.93163365        2.45806767
 C            3.20717852       -0.62678530        1.87021896
 C            2.42277263       -2.91651623        1.62954757
 C            0.23391031       -2.56690076        2.67405168
 C            1.00247373       -3.24051359        1.73499176
 C           -1.73471567       -1.27249947        3.18809642
 C           -0.95430037       -1.94781067        2.25858166
 C           -2.13278286        1.01333243        3.36518881
 C           -2.59700683       -0.20927873        2.72763240
 C           -0.52734480        2.30304688        2.15122763
 C           -1.86773685        2.07772105        2.52370624
 C           -0.24187050        2.86088439        0.89409953
 C            1.72268252        1.47692767        0.77526716
 C            0.90589487        2.45079580        0.21273579
 C            3.11153874       -0.48751356        0.48794826
 C            2.52924211        0.66838716       -0.03960202
 C            2.72688016       -2.84006456        0.21761998
 C            3.18284847       -1.63248025       -0.30738008
 C            0.49320383       -3.40260540        0.38788439
 C            1.65599983       -3.53987581       -0.46725178
 C           -1.24813155       -1.81861985        0.89114707
 C           -0.57199052       -2.61328763       -0.03789674
 C           -2.93026488       -0.12506384        1.37853598
 C           -2.22436285       -0.90728851        0.45029735
 C           -2.85334440        2.29636417        1.58032051
 C           -3.42282393        1.10808573        0.96432902
 C           -1.24347796        3.54543582        0.20261230
 C           -2.61634948        3.26936503        0.54591004
 C           -1.18547545        3.65102304       -1.24772456
 C            1.11021512        2.82629367       -1.11003859
 C            0.00402057        3.34685474       -1.89292891
 C            2.56334687        0.87645402       -1.42167616
 C            1.89774753        1.96578170       -1.97089386
 C            3.18488200       -1.48670658       -1.68870261
 C            2.89199197       -0.18360969       -2.26119555
 C            1.50404437       -3.32307479       -1.82330897
 C            2.48814958       -2.48398430       -2.48371732
 C           -0.73388011       -2.38075591       -1.40445888
 C            0.20346717       -2.89734257       -2.30712138
 C           -2.35804476       -0.64789546       -0.92585738
 C           -1.67891653       -1.45574349       -1.85127218
 C           -3.57564381        1.37816574       -0.44297863
 C           -3.27686294        2.78668229       -0.64989050
 C           -2.44733459        3.15080825       -1.78299765
 C           -3.09864643        0.46373793       -1.36891744
 C           -2.42800958        2.28198430       -2.86504638
 C           -2.93325512        0.93232704       -2.66763787
 C           -0.01911901        2.63291725       -3.16199355
 C            1.16788519        1.79082644       -3.21849776
 C           -1.22509987        2.16699667       -3.66857581
 C            2.12083005       -0.38768328       -3.48031818
 C            1.82300689       -1.80535740       -3.57946117
 C            0.43322410       -2.21791582       -3.57065196
 C            1.12378298        0.52696301       -3.80921772
 C           -1.71705781       -1.15184811       -3.21373820
 C           -2.31396288        0.08705555       -3.65389891
 C           -1.27027004        0.86695151       -4.30919385
 C           -0.51078249       -1.30651746       -4.00008281
 C           -0.07662127        0.04207056       -4.33552419
