   70
C70 / DATE: 7/ 1/2024 / Origin: Program Fullerene / C70 from database
 C            1.43059876       -0.04332039        5.18178709
 C            0.62869879       -1.20234465        4.82679587
 C            1.46411273       -2.06832831        4.03484708
 C            2.59628640       -0.03787527        4.31336763
 C            2.68521660       -1.33960389        3.70426094
 C            2.49950524        1.11616604        3.44604360
 C            0.64494240        1.13713029        4.87486860
 C            1.36499405        1.91605714        3.88569532
 C           -0.61300247       -0.72255894        4.24851721
 C           -0.69307260        0.69918773        4.54501983
 C           -1.03454711       -1.18441586        2.99305638
 C            0.93675684       -2.58246179        2.79049244
 C           -0.33514724       -2.20973796        2.33973918
 C            2.85413814       -1.42316485        2.26442396
 C            2.02788992       -2.52832716        1.84232186
 C            2.74050441        0.99653501        2.07659344
 C            2.85307551       -0.27053245        1.47521222
 C            2.38979276        2.08620435        1.29587636
 C            0.63732217        2.61650370        2.92490585
 C            1.27457947        2.91840149        1.72493310
 C           -1.43160547        1.49542086        3.69210349
 C           -0.75963708        2.56779661        2.96250613
 C           -1.98218210       -0.43681497        2.28923189
 C           -2.30173056        0.84482360        2.73841857
 C           -2.36317072       -0.81716648        0.99974817
 C           -0.63215658       -2.50635039        1.00397553
 C           -1.67609021       -1.84169696        0.34790715
 C            1.68187878       -2.60391118        0.51297999
 C            0.40098059       -3.04477028        0.23730931
 C            2.60516858       -0.42762745        0.09850390
 C            2.24203650       -1.69415381       -0.38035609
 C            2.31600803        1.94902151       -0.14077513
 C            2.42883217        0.69077841       -0.72098251
 C            0.49461904        3.25067489        0.54472308
 C            1.27142690        2.84115877       -0.60831312
 C           -1.53338136        2.79640457        1.74615660
 C           -2.64855990        1.86193043        1.77198879
 C           -0.87999817        3.04656489        0.53971810
 C           -3.18522719        0.03424600        0.26196156
 C           -3.19359398        1.45425584        0.57298705
 C           -3.22535210       -0.07874142       -1.18638765
 C           -1.87039370       -2.05986703       -1.02564758
 C           -2.49776657       -1.08398457       -1.81215156
 C            0.15227268       -3.40367054       -1.06989620
 C           -1.13198013       -3.06619388       -1.63886869
 C            1.92304528       -1.86954678       -1.73012460
 C            1.13565551       -2.98213729       -2.04371116
 C            1.94886901        0.52302142       -2.02204241
 C            1.90387166       -0.75728768       -2.57742533
 C            0.61030575        2.50019480       -1.77232609
 C            1.21284771        1.56309988       -2.60242204
 C           -1.51789246        2.73764773       -0.66632394
 C           -2.77447860        2.13333097       -0.63209800
 C           -3.17566000        1.27277755       -1.72525488
 C           -0.77177991        2.68005320       -1.84875090
 C           -2.58981897        1.47051565       -2.96092694
 C           -1.41981360        2.33144852       -3.03458572
 C           -2.17422420       -0.93946394       -3.17002871
 C           -2.30398151        0.31011666       -3.77959015
 C           -0.94751055       -3.05259986       -3.07898053
 C            0.48922374       -3.08246825       -3.33242647
 C           -1.49269244       -1.95249426       -3.84049125
 C            1.54360030       -0.91068489       -3.91935392
 C            0.78500156       -2.07852565       -4.32634086
 C           -0.48825489       -1.60310386       -4.83404087
 C            0.74257170        1.44827665       -3.90154408
 C           -0.61975007        1.86999884       -4.16125213
 C           -1.31347519        0.73871179       -4.75056241
 C            0.96972971        0.21719092       -4.62897900
 C           -0.30843177       -0.20971381       -5.18601631
