   70
C70 / DATE: 7/ 1/2024 / Origin: Program Fullerene / C70 from database
 C            1.62075302       -0.01849442        4.61303578
 C            0.80959287       -1.21812527        4.51014834
 C            1.28093805       -1.98479009        3.37107769
 C            2.61223849       -0.06707801        3.55570609
 C            2.49168006       -1.34202912        2.88325475
 C            2.47083560        1.12599629        2.75011405
 C            0.75526135        1.11723763        4.35043695
 C            1.25459930        1.79957957        3.17374889
 C           -0.57758795       -0.81072928        4.53104983
 C           -0.61003412        0.63570395        4.33207827
 C           -1.49166387       -1.59123394        3.83901075
 C            0.35309315       -2.47214906        2.44441935
 C           -1.00777001       -2.44840302        2.75920259
 C            0.75053433       -2.62480815        1.11035674
 C            2.73720545       -1.38356148        1.52063592
 C            2.08099501       -2.35882994        0.78981223
 C            2.71059700        1.02216517        1.38732635
 C            3.10763891       -0.21007136        0.85593062
 C            2.08050074        1.92913444        0.54752410
 C            0.34709882        2.20342792        2.19823610
 C            0.80820342        2.39416921        0.89078440
 C           -1.49581493        1.16692176        3.39718797
 C           -1.02588429        2.07539021        2.43726552
 C           -2.70763398       -0.95426529        3.37552973
 C           -2.68567950        0.47998486        3.16335649
 C           -1.97924707       -2.39633277        1.68035278
 C           -3.08464176       -1.57254275        2.11748316
 C           -0.21005788       -2.61841847        0.08828640
 C           -1.52130303       -2.26402798        0.37701412
 C            0.19989000       -2.67193848       -1.24355155
 C            2.51657072       -2.57912605       -0.50352652
 C            1.53957654       -2.95796242       -1.49853288
 C            3.38317602       -0.29458366       -0.51441757
 C            3.34679708       -1.55545107       -1.11137679
 C            2.50633938        1.98660856       -0.76754704
 C            3.23222195        0.84868007       -1.30514414
 C            1.60392931        2.47424713       -1.79050140
 C           -0.06973322        2.85326678       -0.09754329
 C            0.30975025        2.83859786       -1.44441619
 C           -1.91559401        2.59663800        1.50394874
 C           -1.40019967        3.09059801        0.23617957
 C           -3.43896802        0.73964123        1.95239638
 C           -3.54438933       -0.52093849        1.23498381
 C           -3.15413647        1.88398234        1.22588018
 C           -2.23845556       -1.49932292       -0.54563801
 C           -3.17123088       -0.54941387       -0.10352742
 C           -0.60909003       -2.09352526       -2.23443403
 C           -1.80993463       -1.46943185       -1.87450194
 C           -0.12857598       -1.92553774       -3.53570866
 C            2.12755427       -2.64873189       -2.78559208
 C            3.19038732       -1.68159519       -2.55055538
 C            1.27623944       -2.12859235       -3.82629184
 C            2.89279882        0.73903160       -2.71843160
 C            1.82467148        1.69042564       -2.99707158
 C            2.89611114       -0.50151433       -3.33816655
 C            1.81727734       -0.84247803       -4.24473564
 C           -0.51228665       -0.74030590       -4.27255478
 C            0.73243986        1.32804931       -3.78704096
 C            0.69385936        0.06777519       -4.38835404
 C           -0.66145936        2.84575866       -2.44403518
 C           -0.46267609        2.02731934       -3.63278502
 C           -2.43287736        2.86891213       -0.75849761
 C           -3.30489506        1.84115308       -0.21779789
 C           -3.37537588        0.60324200       -0.85739536
 C           -2.07170316        2.78980455       -2.09299842
 C           -2.42034797       -0.58056070       -2.76188210
 C           -1.69834975       -0.11421918       -3.93620259
 C           -1.71080753        1.33476887       -3.89958899
 C           -3.15733071        0.54892625       -2.22619608
 C           -2.67562011        1.74398215       -2.89721352
