   70
C70 / DATE: 7/ 1/2024 / Origin: Program Fullerene / C70 from database
 C            1.40255242       -0.08196784        4.09973015
 C            2.47654341       -0.24759531        3.13560768
 C            2.37796310       -1.59211791        2.59008367
 C            0.54107928       -1.25020655        4.01543974
 C            1.12744080       -2.16802497        3.06292227
 C           -0.81339460       -0.79377119        3.78615182
 C            0.56415950        1.09768047        4.02185455
 C           -0.81847494        0.65273831        3.92818642
 C            0.99529927        2.17406505        3.25797920
 C            2.81537755        0.80487111        2.29030140
 C            2.19497906        2.04418351        2.43967255
 C            3.49368367        0.51992800        1.11113544
 C            2.78340542       -1.83145818        1.27721176
 C            3.48126593       -0.83985785        0.59190401
 C            2.16522828       -2.85180772        0.55749137
 C            0.30559048       -2.81446797        2.15010841
 C            0.91227288       -3.40404234        1.04639976
 C           -1.56162873       -1.38072617        2.76878660
 C           -1.06104929       -2.51337590        2.10575501
 C           -2.66178095       -0.68473842        2.25174013
 C           -1.73497597        1.39476377        3.19528984
 C           -2.70993878        0.70040706        2.37360687
 C            0.02989917        2.96687048        2.51317235
 C           -1.29823399        2.57196006        2.46016969
 C            2.04007939        2.91948378        1.28790743
 C            0.67845640        3.43030023        1.30069256
 C            3.41150025        1.43574537       -0.01732384
 C            2.61860947        2.57822556        0.06676698
 C            3.39979317       -0.76448440       -0.85946224
 C            3.40591953        0.64094783       -1.23703040
 C            2.07502199       -2.76775460       -0.89280156
 C            2.59956295       -1.66352851       -1.55720174
 C            0.11367113       -3.79561310       -0.10190207
 C            0.77623961       -3.29081142       -1.29152789
 C           -1.86590501       -3.18674477        1.19100277
 C           -1.26521841       -3.72794751       -0.01685532
 C           -3.43253228       -1.25986067        1.24951302
 C           -3.14083400       -2.61035010        0.82135989
 C           -3.73137890       -0.46615861        0.06684111
 C           -2.94485467        1.49552932        1.17913844
 C           -1.99096104        2.58811375        1.18148960
 C           -3.23346543        0.83696080       -0.01208016
 C           -0.02400805        3.47714932        0.10176835
 C           -1.28771516        2.87475017        0.01734358
 C            2.07002461        3.11026389       -1.09968109
 C            0.72560188        3.66475156       -1.05195159
 C            2.65613777        1.06616184       -2.32769350
 C            2.19412842        2.37873147       -2.35037405
 C            2.04050507       -1.27772835       -2.77237008
 C            2.10392052        0.11575410       -3.18625846
 C            0.04618060       -2.62283352       -2.27159379
 C            0.73812906       -1.80108066       -3.15812168
 C           -2.01397540       -3.21306543       -1.14889146
 C           -3.25009482       -2.65592334       -0.62780740
 C           -3.67459913       -1.34682180       -1.08961342
 C           -1.34872888       -2.54127068       -2.17426728
 C           -3.14892021       -0.86246673       -2.27545341
 C           -2.04778993       -1.57776240       -2.90363959
 C           -2.66337313        1.29162849       -1.20604840
 C           -1.74817221        2.35212704       -1.19643768
 C           -2.83919531        0.54904346       -2.37324279
 C            0.10766246        3.45620256       -2.34283207
 C            1.05241667        2.73006858       -3.17707152
 C           -1.15442477        2.75277135       -2.39103422
 C            0.89060615        0.41269659       -3.93692010
 C            0.03816963       -0.76511066       -3.89642951
 C           -1.33050775       -0.62147006       -3.72941074
 C           -1.89600437        0.69531027       -3.46780219
 C            0.32305670        1.67736991       -3.85690194
 C           -1.07999756        1.81539058       -3.49649123
