   70
C70 / DATE: 7/ 1/2024 / Origin: Program Fullerene / C70 from database
 C            1.20601136        0.26262003        4.67000151
 C            2.46975528        0.05544308        4.00140078
 C            2.48021812       -1.31844664        3.53052077
 C            0.39049964       -0.92171417        4.42446926
 C            1.10876987       -1.76540999        3.49322871
 C           -0.93133108       -0.47051497        4.05985193
 C            0.41891223        1.41834981        4.29362735
 C           -0.95389351        0.97155768        4.18594564
 C            0.73905720        2.12005924        3.05913094
 C            2.80134152        0.88639308        2.85636966
 C            1.83025806        1.71398310        2.29474777
 C            3.21458351       -1.32925682        2.29241717
 C            3.58324827        0.04197126        1.97779913
 C            2.74681098       -2.10491733        1.24456343
 C            0.53297555       -2.05725557        2.25523000
 C            1.35824860       -2.32860401        1.14924779
 C           -1.55438221       -1.01174358        2.94543001
 C           -0.83686134       -1.83363250        2.06234755
 C           -2.64034781       -0.31189238        2.43940172
 C           -1.57119065        1.71905314        3.10804589
 C           -0.51733344        2.42120475        2.39564152
 C           -2.52832130        1.07960419        2.33690772
 C           -0.56786804        2.44163983        1.00298650
 C            1.78739762        1.85080742        0.90695329
 C            0.60690406        2.27040262        0.27223827
 C            3.67989726        0.37283345        0.63144229
 C            2.87515997        1.40782647        0.14539817
 C            3.48744552       -1.98980972        0.07929467
 C            4.01089603       -0.66971626       -0.23199894
 C            2.97718024       -2.56820004       -1.13693019
 C            0.76487055       -2.55467466       -0.10476261
 C            1.55532562       -2.80203496       -1.22304899
 C           -1.41234884       -2.14760705        0.82692021
 C           -0.58763611       -2.27317561       -0.29000439
 C           -3.43804668       -0.97500695        1.52093398
 C           -2.77774559       -1.93177833        0.64930170
 C           -4.34078373       -0.18510156        0.70679688
 C           -2.84421975        1.66504553        1.11927104
 C           -1.79664640        2.22470802        0.37125647
 C           -3.98666749        1.20101251        0.48481700
 C           -1.86073860        2.25443292       -1.02826956
 C            0.55835265        2.35812943       -1.11802395
 C           -0.67365130        2.22685112       -1.78188161
 C            2.92174618        1.71907895       -1.20901448
 C            1.75145590        2.31083002       -1.83273232
 C            3.91454789       -0.47530316       -1.66435385
 C            3.35777448       -1.69441747       -2.23317178
 C            3.48703339        0.75469878       -2.14386895
 C            1.11193155       -2.31823324       -2.51846950
 C            2.22302433       -1.60290630       -3.13273544
 C           -1.06844322       -1.95746619       -1.57125542
 C           -0.17614343       -1.80864235       -2.63946791
 C           -3.30062454       -1.73951603       -0.69198372
 C           -4.42686791       -0.82300990       -0.58992306
 C           -2.41114126       -1.62760940       -1.75790146
 C           -4.18706113        1.48564749       -0.91611582
 C           -3.08854864        2.05948282       -1.66374924
 C           -4.56261488        0.23597267       -1.56821335
 C           -2.76919246       -0.89110731       -2.88603786
 C           -3.10544145        1.41134455       -2.95280960
 C           -3.78759810        0.14032658       -2.78362191
 C           -0.71119859        1.80257499       -3.12569051
 C           -0.43788683       -0.85437100       -3.62733312
 C           -1.83544204        1.12444125       -3.56693057
 C           -1.71826260       -0.31896001       -3.70121304
 C            1.72357527        1.86990824       -3.20698752
 C            2.69033773        0.79599046       -3.35581305
 C            1.97368994       -0.39937025       -3.77690747
 C            0.46751735        1.40233500       -3.73405412
 C            0.59972721       -0.01515479       -4.02866144
