   70
C70 / DATE: 7/ 1/2024 / Origin: Program Fullerene / C70 from database
 C            1.19669898        0.20270506        4.67199587
 C            2.46080129        0.03027824        3.99080383
 C            2.51810334       -1.34844806        3.54011403
 C            0.39094357       -0.98326222        4.40494007
 C            1.16927481       -1.86227543        3.55031411
 C           -0.91134979       -0.53764015        3.94218206
 C            0.39492003        1.35835627        4.33435980
 C           -0.96595879        0.89298319        4.14111321
 C            0.74604895        2.14259357        3.15988939
 C            2.76038252        0.86536258        2.83737771
 C            1.79140858        1.73176261        2.33568899
 C            3.22308246       -1.35299054        2.28202506
 C            3.49613114        0.02865550        1.91465577
 C            2.79634312       -2.20305172        1.27238147
 C            0.61517826       -2.29311746        2.34802993
 C            1.44987166       -2.61716421        1.26479218
 C           -1.41718942       -1.05396761        2.75348353
 C           -0.75100398       -2.11173255        2.13552150
 C           -2.34712356       -0.30662917        2.01928731
 C           -1.54315545        1.69461448        3.08611187
 C           -0.50247022        2.55412769        2.55652158
 C           -2.38106914        1.08912692        2.16159134
 C           -0.54467452        2.82393639        1.19727412
 C            1.69816574        1.92904456        0.95327217
 C            0.59892316        2.62321085        0.41629669
 C            3.49571204        0.34322558        0.56099839
 C            2.67364828        1.38047644        0.10789473
 C            3.45760184       -2.04328657        0.06464826
 C            3.82355231       -0.68994865       -0.31719776
 C            2.96720735       -2.72490201       -1.10573526
 C            0.87639129       -3.15185022        0.09678456
 C            1.61195024       -3.22205444       -1.08292989
 C           -1.34794047       -2.73573053        1.05562095
 C           -0.50688488       -3.27279749        0.00317317
 C           -2.97882207       -0.89911194        0.91613270
 C           -2.51027409       -2.12132884        0.43878347
 C           -3.75808280       -0.11160522        0.06825155
 C           -2.73151155        1.85121669        1.05588064
 C           -1.78846111        2.77194753        0.57661432
 C           -3.69869579        1.32797944        0.21160784
 C           -1.87928756        3.27689734       -0.71152447
 C            0.53351544        2.89161766       -0.95956499
 C           -0.68552278        3.25962938       -1.53308094
 C            2.63674372        1.65888118       -1.25337821
 C            1.51732039        2.39396058       -1.80437817
 C            3.57899253       -0.54489226       -1.74098139
 C            3.09794873       -1.82033187       -2.23686401
 C            2.99054571        0.61921838       -2.20630151
 C            0.98218424       -2.83175627       -2.33487208
 C            1.85323623       -1.86062985       -2.98032454
 C           -1.16068974       -3.01089261       -1.27203653
 C           -2.42217266       -2.33994437       -0.99710037
 C           -0.39528078       -2.63426757       -2.37311703
 C           -3.77122284       -0.40253755       -1.35834326
 C           -2.89293524       -1.35777715       -1.86091481
 C           -3.93241193        1.92521229       -1.08717026
 C           -3.01158002        2.93697758       -1.55130107
 C           -3.95505184        0.85273817       -2.06801973
 C           -1.05331112        2.69458875       -2.82372317
 C           -2.49479689        2.51468101       -2.84209530
 C           -3.03520944        1.20085493       -3.13432887
 C            1.11781959        1.74236354       -3.04432684
 C            1.92093796        0.54007347       -3.19190798
 C            1.30078314       -0.67982228       -3.46613130
 C           -0.22887989        1.72666511       -3.38863694
 C           -0.91252446       -1.71848256       -3.28591584
 C           -2.21702109       -1.11670838       -3.05677705
 C           -2.18285060        0.22437750       -3.62626310
 C           -0.03806903       -0.69184771       -3.83661888
 C           -0.78888310        0.55244504       -3.89455261
