   70
C70 / DATE: 7/ 1/2024 / Origin: Program Fullerene / C70 from database
 C            1.18854005       -0.03400095        4.29399261
 C            2.47724293       -0.36587138        3.73019916
 C            2.47265814       -1.78579675        3.43160781
 C            0.36676202       -1.23475211        4.25894443
 C            1.10039967       -2.24935300        3.53896200
 C           -0.93636016       -0.85492196        3.77029238
 C            0.41781885        1.03333370        3.68582504
 C           -0.95858467        0.59383656        3.63938718
 C            0.91680276        1.72010589        2.59017121
 C            2.90560244        0.32511161        2.53281049
 C            2.15827353        1.38053727        2.03057397
 C            3.16327098       -1.97688761        2.16874003
 C            3.40280318       -0.66072679        1.59209561
 C            2.71576712       -2.98896281        1.33791241
 C            0.52290216       -2.86814572        2.43171359
 C            1.38639509       -3.53895756        1.56881471
 C           -1.54064795       -1.61021081        2.77210383
 C           -0.74424996       -2.45323317        1.97334465
 C           -2.71779192       -1.08342931        2.24632795
 C           -1.82053670        1.13913356        2.69105615
 C           -2.91582004        0.35342983        2.35522614
 C            0.02014827        2.46893077        1.83035842
 C           -1.31995356        2.05921532        1.74876037
 C            0.54730140        3.31536532        0.86367145
 C            2.43048321        1.79551702        0.73506055
 C            1.85473258        2.98837407        0.32779547
 C            3.18474247       -0.44957433        0.22710888
 C            2.80947404        0.83120152       -0.21340529
 C            2.85797803       -2.82479543       -0.09306542
 C            3.05015442       -1.55112117       -0.62699261
 C            0.89283374       -4.03170345        0.30325166
 C            1.88066016       -3.70293149       -0.71016776
 C           -1.15819235       -2.75423939        0.66192141
 C           -0.38702633       -3.55673785       -0.16336990
 C           -3.12689106       -1.45370311        0.90973644
 C           -2.18099862       -2.02109708        0.07648990
 C           -3.77896013        0.76238589        1.27583284
 C           -3.97331899       -0.39341645        0.41178340
 C           -2.10242878        2.43532133        0.63856447
 C           -3.35607670        1.86019667        0.43735895
 C           -0.28409563        3.74961040       -0.23792320
 C           -1.53793392        3.17789566       -0.40375196
 C            1.87331964        3.34189230       -1.06969374
 C            0.57765276        3.90969917       -1.39727477
 C            2.65004986        1.07734094       -1.58622970
 C            2.16636352        2.30416603       -2.03029041
 C            2.73548628       -1.34526600       -1.96592806
 C            2.56337034        0.00575933       -2.46215838
 C            1.17352261       -3.23054951       -1.88412633
 C           -0.24349188       -3.17125284       -1.55566807
 C            1.72848242       -2.18490457       -2.60343245
 C           -2.06085918       -1.61036736       -1.26052075
 C           -1.01237716       -2.11335267       -2.04360325
 C           -3.79237343        0.05473379       -0.95006378
 C           -3.75614450        1.50820846       -0.90982124
 C           -2.90380744       -0.61969381       -1.78491752
 C           -2.08385126        3.10517027       -1.69005438
 C           -3.17236836        2.18178355       -1.96841753
 C            0.15036767        3.34785469       -2.66348579
 C            1.12023828        2.32471571       -3.04394261
 C           -1.20174636        3.10797660       -2.85033055
 C            1.49151105       -0.01359215       -3.44579957
 C            0.84467608       -1.31000109       -3.34616118
 C           -0.52544235       -1.35835911       -3.11410494
 C            0.69799108        1.11892802       -3.61251475
 C           -2.56885465       -0.01456816       -2.99192573
 C           -2.79820938        1.41336765       -3.14224363
 C           -1.59615654        2.00656135       -3.70281616
 C           -1.29654806       -0.32081291       -3.61606975
 C           -0.64468085        0.93962963       -3.94752441
