   70
C70 / DATE: 7/ 1/2024 / Origin: Program Fullerene / C70 from database
 C            1.59058947        0.09692281        4.39421117
 C            0.78104618       -1.09832163        4.23939008
 C            1.49036675       -2.00479908        3.36472622
 C            2.69412543        0.00793725        3.45369453
 C            2.68586875       -1.32147882        2.88580190
 C            2.60613452        1.13155579        2.54613257
 C            0.77488491        1.23218258        4.00788788
 C            1.45872888        1.93032041        2.94229039
 C           -0.55344832       -0.69232295        3.85571644
 C           -0.56699942        0.75709865        3.74749688
 C           -1.22147570       -1.42678113        2.88264463
 C            0.76261320       -2.77143751        2.45956409
 C           -0.61997492       -2.57294905        2.33815927
 C            1.46460485       -3.33972962        1.39879837
 C            3.04244730       -1.48224512        1.55113003
 C            2.67569669       -2.67808809        0.94262411
 C            2.82165376        0.91047595        1.18676885
 C            3.25802145       -0.34800242        0.75399398
 C            2.26122665        1.80409293        0.26544164
 C            0.69821768        2.50002735        1.93460489
 C            1.32050658        2.73247434        0.71807044
 C           -1.27615519        1.32570958        2.69579400
 C           -0.69421510        2.36034998        1.95148691
 C           -2.27083942       -0.80788855        2.20151560
 C           -2.30978705        0.58808570        2.12839383
 C           -3.08951247       -1.56897194        1.37488643
 C           -1.32446461       -3.32956555        1.40237785
 C           -2.63196766       -2.87938626        0.96132489
 C            0.75454830       -3.82762943        0.22746081
 C           -0.62931980       -3.82560923        0.22803037
 C            2.73881589       -2.80499178       -0.50023795
 C            1.45842708       -3.33564288       -0.94518675
 C            3.58529753       -0.51324800       -0.58915872
 C            3.33586512       -1.79418683       -1.23528489
 C            2.42109172        1.58106756       -1.10604399
 C            3.23052957        0.53489336       -1.53156050
 C            1.57837446        2.22371240       -2.02265676
 C            0.66828785        3.55300384       -0.18637308
 C            0.90625825        3.36993862       -1.60345515
 C           -1.43240976        2.96460485        0.92661691
 C           -0.75696914        3.76019553       -0.00060327
 C           -3.13943587        1.21472888        1.20699838
 C           -2.69781899        2.46538135        0.60920773
 C           -3.69802368       -0.94999919        0.21352566
 C           -3.79122866        0.43028835        0.16907540
 C           -2.64025318       -2.90365974       -0.49560369
 C           -1.32104206       -3.29577198       -0.93336968
 C           -3.17140638       -1.63911711       -0.95037374
 C            0.75504832       -2.67582371       -1.95371246
 C           -0.62176303       -2.48523764       -1.82438989
 C            2.82499235       -1.52452163       -2.56540776
 C            2.92593347       -0.09608655       -2.79519582
 C            1.46599078       -1.93139087       -2.88350678
 C            1.18069390        1.56349038       -3.19968748
 C            1.72647065        0.32054252       -3.48563381
 C            0.81761376       -0.81663188       -3.54081174
 C           -0.09429562        1.78328392       -3.70717759
 C           -0.28737020        3.81519700       -2.30060995
 C           -1.33772699        3.99924551       -1.31040043
 C           -0.81537232        2.98755870       -3.35954671
 C           -3.16248248        2.46806187       -0.77217670
 C           -3.53710786        1.10188988       -1.09222327
 C           -2.48831712        3.21896547       -1.72347668
 C           -2.16840850        2.59939134       -2.99814944
 C           -2.47727464       -0.90081212       -1.90406584
 C           -1.23315724       -1.34848094       -2.38280872
 C           -0.54259637       -0.58743002       -3.33870096
 C           -1.02830831        0.66978454       -3.69661975
 C           -2.86146679        0.42355070       -2.10663575
 C           -2.26857719        1.15222939       -3.12499745
