   70
C70 / DATE: 7/ 1/2024 / Origin: Program Fullerene / C70 from database
 C            1.26387792       -0.11836042        4.42920931
 C            2.50593699       -0.34928306        3.72836461
 C            2.50428698       -1.72484507        3.26510213
 C            0.42660485       -1.29437744        4.26290894
 C            1.21680814       -2.31253157        3.59590547
 C           -0.82561210       -0.86868922        3.65532136
 C            0.47701975        1.03140571        4.04474914
 C           -0.85930869        0.57859895        3.69884160
 C            1.04240197        2.01288920        3.24277089
 C            2.82552238        0.50284343        2.59652188
 C            2.08313759        1.65600541        2.36699795
 C            2.93940579       -1.72835507        1.87785200
 C            3.13593754       -0.35106688        1.46322268
 C            2.33746436       -2.60224683        0.98457594
 C            0.59784861       -3.10937624        2.64535563
 C            1.32970724       -3.45359238        1.44144283
 C           -1.28131298       -1.52537215        2.51988909
 C           -0.75423446       -2.77936661        2.21597812
 C           -1.94368278       -0.80350129        1.52549098
 C           -1.54498521        1.28406506        2.71357866
 C           -2.09670278        0.58768442        1.63307466
 C            0.17169911        3.01857984        2.84579600
 C           -1.19730670        2.62435460        2.54030738
 C            0.60360858        3.94462241        1.82272701
 C            2.11021896        2.19937829        1.08226819
 C            1.62601387        3.48951308        0.90837746
 C            2.71992739        0.03435889        0.18871413
 C            2.27521439        1.34562413       -0.02056122
 C            2.38176520       -2.29831315       -0.37252871
 C            2.44199087       -0.95127854       -0.76485086
 C            1.86860502       -3.24712699       -1.24972768
 C            0.33866706       -3.93890273        0.49694467
 C           -0.92347299       -3.32336842        0.87643847
 C            0.67662375       -3.96870967       -0.84368433
 C           -2.32986439       -1.45654506        0.35234657
 C           -1.63468402       -2.58789045       -0.06708247
 C           -3.16357867       -0.80950984       -0.54531076
 C           -2.63582457        1.30274053        0.56120544
 C           -3.36778185        0.62003667       -0.40096740
 C           -1.59966385        3.32298688        1.33167801
 C           -0.56216470        4.29504226        1.03339085
 C           -2.18243947        2.59924897        0.29459455
 C            1.24847809        3.93812751       -0.41228214
 C           -0.12023975        4.43248170       -0.33545369
 C            1.80214833        1.71420626       -1.28769126
 C            1.31180088        2.99568814       -1.50902165
 C            1.98891776       -0.56596604       -2.03049886
 C            1.48942731        0.72388849       -2.21701197
 C            1.70866032       -2.90936171       -2.64746799
 C            1.82471365       -1.52049184       -3.02899270
 C           -0.34134234       -3.62824068       -1.81643471
 C           -1.38926565       -2.78904415       -1.43124376
 C            0.37946840       -3.35243506       -3.04106134
 C           -3.03301258       -1.11007243       -1.96029056
 C           -2.02642771       -1.97735723       -2.38044867
 C           -3.46647147        1.19010260       -1.72587254
 C           -3.24447495        0.12778540       -2.69257030
 C           -2.01223389        3.02865239       -1.03197653
 C           -0.87448550        3.75571159       -1.36741874
 C            0.08316554        3.13884884       -2.26413605
 C           -2.58844904        2.29129292       -2.05887208
 C            0.51083121        0.97793558       -3.19215506
 C           -2.22116644        0.57083051       -3.62296689
 C           -0.34736053        2.06368037       -3.02919531
 C           -1.72341555        1.85276031       -3.14425743
 C            0.82876993       -1.29372529       -4.05386930
 C           -0.15520902       -2.36186614       -3.94453581
 C           -1.41966328       -1.73354919       -3.61688283
 C            0.10154325       -0.04107469       -4.04259844
 C           -1.31238104       -0.36617782       -4.09202255
