   70
C70 / DATE: 7/ 1/2024 / Origin: Program Fullerene / C70 from database
 C            1.56661495        0.05146931        4.47395710
 C            0.77764504       -1.14865587        4.26474354
 C            1.48238443       -1.98501730        3.32060353
 C            2.67027253        0.02516656        3.52901042
 C            2.61777353       -1.22413465        2.81364442
 C            2.61895861        1.23908414        2.75739454
 C            0.73006376        1.19125568        4.14241095
 C            1.42287916        1.97244689        3.14762820
 C           -0.57066586       -0.74767404        3.93151029
 C           -0.58596385        0.70004155        3.81410684
 C           -1.26394442       -1.47987557        2.97452649
 C            0.74233472       -2.73645484        2.41482573
 C           -0.65197775       -2.59186436        2.37435074
 C            1.40987613       -3.19177385        1.28189206
 C            2.86513486       -1.23898439        1.44261361
 C            2.52300274       -2.40446746        0.77472375
 C            2.93879268        1.20203142        1.40511676
 C            2.94961643       -0.03050117        0.72199642
 C            2.63505538        2.35426168        0.69946854
 C            0.69117775        2.59508653        2.14110343
 C            1.43090536        3.08095761        1.07197726
 C           -1.26263634        1.25221411        2.73416124
 C           -0.64369927        2.21752298        1.91987256
 C           -2.33365026       -0.85688673        2.32961218
 C           -2.34274786        0.53795426        2.22659130
 C           -3.17869631       -1.62039794        1.53353449
 C           -1.37528143       -3.34012167        1.44582184
 C           -2.71627036       -2.91716524        1.08223496
 C            0.66026474       -3.70033366        0.14579640
 C           -0.72007469       -3.77725603        0.22515335
 C            2.45546481       -2.41298304       -0.66495111
 C            1.26894902       -3.15757622       -1.05656443
 C            2.91964713       -0.04931512       -0.69144335
 C            2.77063187       -1.26861471       -1.37750946
 C            2.72503904        2.35679287       -0.73706106
 C            2.93935431        1.16177629       -1.40954207
 C            0.76105000        3.47546962       -0.14918636
 C            1.71296917        3.28006941       -1.22667406
 C           -1.30620640        2.64570919        0.75886364
 C           -0.57005938        3.12389446       -0.33710925
 C           -3.17685031        1.17077211        1.31464287
 C           -2.65247564        2.32114189        0.60225628
 C           -3.85797488       -0.99880088        0.41408678
 C           -3.97133334        0.38188347        0.38498370
 C           -2.80884779       -2.93299315       -0.37144279
 C           -1.50712802       -3.28111894       -0.89002599
 C           -3.40416488       -1.68457321       -0.78646746
 C            0.46803355       -2.64065280       -2.07315679
 C           -0.89602977       -2.45975701       -1.83465566
 C            2.37253702       -1.26554522       -2.70863759
 C            1.09320574       -1.87176436       -3.04333024
 C            2.77759834        1.17042750       -2.79457425
 C            2.50912076       -0.06473070       -3.49010793
 C            1.23862010        3.12085489       -2.51591451
 C            1.92589926        2.18599607       -3.39163486
 C           -1.07474002        3.02558916       -1.64445556
 C           -0.19001582        2.94848423       -2.71987177
 C           -3.22476182        2.30935979       -0.72467420
 C           -3.91527962        1.04379155       -0.90427350
 C           -2.33852148        2.48524164       -1.85026445
 C           -2.81147033       -0.94279002       -1.80497161
 C           -1.53720209       -1.28797499       -2.28002378
 C           -3.28267834        0.34723902       -2.01207768
 C           -2.44904822        1.30785348       -2.69987706
 C            0.32247629       -0.87126544       -3.74868748
 C            1.27617876        0.10525125       -4.24539057
 C            0.92377199        1.50399994       -4.19488324
 C           -0.37396528        1.86464890       -3.66953770
 C           -0.88972822       -0.45170494       -3.20185452
 C           -1.30920992        0.87798604       -3.36438388
