   70
C70 / DATE: 7/ 1/2024 / Origin: Program Fullerene / C70 from database
 C            1.29509217        0.00142403        4.39517937
 C            2.59606668       -0.28767804        3.84203211
 C            2.59551922       -1.68253870        3.43568882
 C            0.46451205       -1.18482657        4.22773024
 C            1.21315719       -2.13170285        3.43647666
 C           -0.82259225       -0.74087423        3.74153303
 C            0.54424726        1.11708347        3.85901594
 C           -0.84287961        0.70268966        3.87845588
 C            1.01443468        1.81725167        2.74590906
 C            3.05617993        0.48706960        2.70875288
 C            2.23923240        1.47042279        2.14655725
 C            3.35547152       -1.78106433        2.20131716
 C            3.75829666       -0.43122052        1.83010053
 C            2.89688198       -2.64795664        1.21853288
 C            0.67002273       -2.62316930        2.25243199
 C            1.54381983       -3.17554668        1.32537128
 C           -1.35772497       -1.30312738        2.58637216
 C           -0.60797321       -2.22338850        1.83207406
 C           -2.45338918       -0.66435473        2.00452436
 C           -1.74503684        1.41554552        3.11039821
 C           -2.68505287        0.68054246        2.28090027
 C            0.11529988        2.64116964        2.06229161
 C           -1.25151476        2.52053881        2.30624612
 C            0.53517479        3.32908594        0.93288073
 C            2.55123803        1.94214239        0.86793370
 C            1.77846385        2.94377267        0.29634025
 C            3.88826525       -0.09588378        0.48883451
 C            3.35543695        1.17382450        0.02710235
 C            3.13610412       -2.33922782       -0.18165071
 C            3.60927630       -1.08699226       -0.54060911
 C            1.07660369       -3.45997213       -0.01221816
 C            2.05614813       -2.93085540       -0.94733264
 C           -1.11673000       -2.69459091        0.61105652
 C           -0.26967624       -3.31182775       -0.31918190
 C           -3.06024091       -1.22836360        0.89401931
 C           -2.41132934       -2.34271017        0.23408796
 C           -3.62086351       -0.35887324       -0.13281569
 C           -3.09368503        1.56629600        1.20397162
 C           -2.19390970        2.71132549        1.21544757
 C           -3.49053639        1.02420049       -0.01518194
 C           -0.42548408        3.65156546       -0.11545091
 C           -1.75403063        3.23697664        0.00622611
 C            1.55076051        2.91755215       -1.13967376
 C            0.26624233        3.54255238       -1.39427851
 C            2.97149138        1.01496575       -1.36688712
 C            3.01045137       -0.40158031       -1.67583526
 C            1.93233191        1.79087229       -1.86506353
 C            1.58701477       -2.30989082       -2.09980847
 C            1.93504335       -0.97305874       -2.34939319
 C           -0.60035104       -3.29372352       -1.67437464
 C            0.39662639       -2.80828072       -2.61576509
 C           -2.76898160       -2.28553604       -1.17273990
 C           -3.40761757       -0.99927256       -1.42129559
 C           -1.89830837       -2.81265972       -2.10994701
 C           -3.04188932       -0.22614447       -2.52296443
 C           -3.36343218        1.79994835       -1.16475648
 C           -2.50459340        2.97562063       -1.13677395
 C           -3.19712323        1.15511933       -2.45863226
 C           -0.44348333        3.17898011       -2.52710476
 C           -1.88810921        3.10963700       -2.44338132
 C           -2.33286304        1.99871902       -3.26622042
 C            1.04930612        1.24227639       -2.79924508
 C            1.06428319       -0.13501004       -3.05706011
 C            0.00969233        2.03156020       -3.29639517
 C           -1.16348540        1.40402354       -3.88466269
 C           -0.28701545       -2.07610475       -3.65688395
 C           -1.71350026       -2.11903284       -3.37085273
 C           -2.22768669       -0.76938177       -3.51768105
 C            0.07818447       -0.69324505       -3.86568811
 C           -1.15528380        0.03491250       -4.08798681
