   70
C70 / DATE: 7/ 1/2024 / Origin: Program Fullerene / C70 from database
 C            1.53110492       -0.24424767        5.61836361
 C            0.66521991       -1.38713216        5.84516166
 C            1.22381078       -2.51089167        5.11542949
 C            2.52510226       -0.62302282        4.62648556
 C            2.33567474       -2.02023979        4.31645906
 C            2.44627328        0.33322574        3.53826556
 C            0.72230022        0.80961925        5.03412423
 C            1.43277143        1.31549706        3.87480251
 C           -0.63364695       -1.08216212        5.26425109
 C           -0.61791287        0.29662813        4.82002939
 C            0.20813348       -2.98303388        4.19258946
 C           -0.94359456       -2.10567405        4.28700100
 C            2.07802455       -2.38299388        2.93556850
 C            0.83100235       -3.12336863        2.88987798
 C            2.49722402       -0.10537180        2.21577549
 C            2.31312433       -1.46315113        1.91449095
 C            2.16098046        0.82317190        1.23114103
 C            0.67792347        1.82160755        2.82385644
 C            1.26444349        1.84176670        1.55900585
 C           -1.22761783        0.61180248        3.61096720
 C           -0.70865599        1.68336944        2.89217752
 C           -1.54423879       -1.72353385        3.09280285
 C           -1.90916015       -0.38513542        2.90213224
 C            0.03283253       -2.93685855        1.76802535
 C           -1.27475193       -2.49238640        1.96564097
 C            1.80809599       -1.77937966        0.65367273
 C            0.66530877       -2.57762548        0.57840347
 C            2.25424540        0.43322037       -0.09851051
 C            2.07210567       -0.90980875       -0.39651149
 C            1.95571937        1.36477876       -1.08433343
 C            0.58151482        2.48872164        0.53056521
 C            1.05747485        2.38783413       -0.77553626
 C           -1.46058801        2.16313237        1.83436574
 C           -0.76742667        2.77137899        0.71626962
 C           -2.53760513       -0.03272147        1.69782769
 C           -2.48227646        1.29464118        1.27525721
 C           -2.06301462       -2.28070376        0.84834238
 C           -2.79747188       -1.03036320        0.75937950
 C           -0.10044521       -2.54175700       -0.58562053
 C           -1.48519172       -2.52319232       -0.45851206
 C            1.60281714       -1.23779061       -1.66178501
 C            0.45832936       -2.03156909       -1.75613248
 C            2.08644099        0.97845866       -2.41790553
 C            1.90231416       -0.37932515       -2.71916780
 C            1.83266599        1.95213396       -3.38305157
 C            0.26778469        2.90374333       -1.80243492
 C            0.81633929        2.94186023       -3.07838938
 C           -1.66064243        2.69095483       -0.42226157
 C           -2.60779170        1.62586673       -0.14086079
 C           -1.11508974        2.75569733       -1.69219639
 C           -2.92300525       -0.69912505       -0.65673600
 C           -2.26307633       -1.75286557       -1.40826212
 C           -2.78466126        0.61908166       -1.08880758
 C           -0.37732177       -1.85473757       -2.85825646
 C           -1.68119464       -1.42008015       -2.61872142
 C            1.46441458       -0.76407708       -3.98572688
 C            0.21456851       -1.49699288       -4.06329459
 C            1.69143629        1.57653858       -4.77726526
 C            1.50201534        0.17932449       -5.08728421
 C           -0.09681459        2.97074769       -4.20533849
 C            0.56141294        2.31419756       -5.31970385
 C           -1.78814993        2.09065673       -2.71150469
 C           -2.38023420        0.85769862       -2.41131837
 C           -2.10478626       -0.24468985       -3.22968417
 C           -1.40150487        2.36402449       -4.01867934
 C           -0.61097531       -0.82189128       -5.04687196
 C            0.25413078        0.04755635       -5.82264186
 C           -0.37410313        1.35506335       -5.87848500
 C           -1.72718999       -0.03827803       -4.55172057
 C           -1.54494096        1.32217750       -5.01499598
