   70
C70 / DATE: 7/ 1/2024 / Origin: Program Fullerene / C70 from database
 C            1.60748487       -0.08551875        4.62145707
 C            0.79762762       -1.26778932        4.40531244
 C            1.36372639       -2.00960922        3.29103589
 C            2.66265533       -0.08797670        3.62520894
 C            2.49284379       -1.25243208        2.78186886
 C            2.65842889        1.20826292        2.98381241
 C            0.76591906        1.07180857        4.36583558
 C            1.42651417        1.88286132        3.37089067
 C           -0.58391260       -0.84027436        4.30801969
 C           -0.56920339        0.59699369        4.08104117
 C           -1.44070456       -1.61414630        3.54144612
 C            0.49433571       -2.60073605        2.38195200
 C           -0.86780358       -2.64318043        2.68779593
 C            0.89521631       -2.74086900        1.05295871
 C            2.62280760       -1.08435329        1.40856975
 C            1.90714427       -1.91848979        0.54432034
 C            3.03842282        1.28897087        1.64936370
 C            3.17763004        0.10161288        0.91829174
 C            2.66523864        2.44558715        0.97447120
 C            0.67153246        2.48599722        2.36922782
 C            1.38852806        3.04827914        1.31907391
 C           -1.25593130        1.10841142        2.98210466
 C           -0.64330385        2.05164748        2.13502103
 C           -2.46931968       -0.95203943        2.75861798
 C           -2.38944861        0.42144698        2.54307188
 C           -1.83243714       -2.91050083        1.63360877
 C           -2.79405174       -1.81957112        1.63560054
 C            0.05456603       -3.41741020        0.17790799
 C           -1.37767082       -3.39937379        0.42396977
 C            0.24974465       -3.28644072       -1.25162944
 C            2.12406900       -1.82607172       -0.83594938
 C            1.28328815       -2.49132378       -1.73486605
 C            3.49684678        0.17026908       -0.43303808
 C            3.03818345       -0.88915130       -1.31441689
 C            2.83033553        2.52728823       -0.46391443
 C            3.34350086        1.43112451       -1.14259469
 C            0.71415479        3.38679279        0.08238619
 C            1.67567999        3.23353957       -0.99645108
 C           -1.31858268        2.47604383        0.98345959
 C           -0.59964477        2.97971722       -0.10795413
 C           -3.15411642        0.96382798        1.52061022
 C           -2.65708005        2.13595916        0.83202587
 C           -3.19799130       -1.23142625        0.43711048
 C           -3.68985571        0.06794281        0.50748425
 C           -2.01211634       -2.93888992       -0.79442987
 C           -1.06989245       -3.19716492       -1.86316712
 C           -2.73251490       -1.74440094       -0.78587329
 C           -1.21079594       -2.50806331       -3.05397899
 C            1.25229434       -2.10526985       -3.07501353
 C           -0.01115777       -2.15249201       -3.78934035
 C            2.85291855       -0.31239659       -2.63416175
 C            2.88026125        1.13425691       -2.48836114
 C            1.94289838       -0.90076609       -3.49899553
 C            1.21306677        2.93483662       -2.26886277
 C            1.87300819        1.90615898       -3.05829670
 C           -1.09874538        2.86582933       -1.41333660
 C           -0.21719424        2.81416173       -2.48856689
 C           -3.24406223        2.13482486       -0.49158031
 C           -3.86286848        0.83463458       -0.70274393
 C           -2.38973372        2.40469004       -1.62630619
 C           -2.84993731       -1.00242087       -1.97401384
 C           -2.11524627       -1.37045114       -3.10165752
 C           -3.34994303        0.29453991       -1.94069610
 C           -2.60206299        1.34932036       -2.60471721
 C           -0.22491762       -0.85062327       -4.39778170
 C            0.98356416       -0.07135302       -4.21540439
 C            0.86686269        1.27441968       -3.89735808
 C           -0.43424871        1.82071127       -3.52936178
 C           -1.48277818       -0.32663706       -3.89663797
 C           -1.56202584        0.99684430       -3.46347538
