   70
C70 / DATE: 7/ 1/2024 / Origin: Program Fullerene / C70 from database
 C            1.08765471       -0.02600569        4.47100520
 C            2.44474391       -0.31913054        4.07824942
 C            2.47273862       -1.71644394        3.67729901
 C            0.30013085       -1.22370436        4.21443705
 C            1.10443414       -2.09261570        3.38903055
 C           -0.96806008       -0.78798680        3.69290258
 C            0.39823746        1.07228249        3.82248213
 C           -0.98256938        0.66587400        3.71683042
 C            0.97207131        1.71179955        2.72909992
 C            3.02374114        0.43688705        2.98716487
 C            2.21659525        1.28836573        2.23463924
 C            3.44587561       -1.83065409        2.62289185
 C            3.89626981       -0.48360007        2.28916526
 C            3.03751920       -2.43928396        1.37695223
 C            0.71250622       -2.32407508        2.06408941
 C            1.67890385       -2.64387778        1.10124093
 C           -1.48622054       -1.41314384        2.56955189
 C           -0.60288675       -2.03386620        1.66653459
 C           -2.66122705       -0.86086043        2.08966061
 C           -1.79697704        1.30849483        2.79267370
 C           -2.85777546        0.56637270        2.28104081
 C            0.13988207        2.47832807        1.91273498
 C           -1.25416589        2.33138094        2.00526265
 C            0.70258956        3.11796167        0.81310449
 C            2.55676254        1.54029716        0.90170022
 C            1.90044461        2.55594376        0.22274937
 C            3.96644964       -0.41525569        0.83965758
 C            3.84652904       -1.78417651        0.37482650
 C            3.25437398        0.57770901        0.16632180
 C            3.49753899       -1.98717088       -0.94070610
 C            1.30672286       -2.80940354       -0.23639757
 C            2.32547753       -2.79743627       -1.19365258
 C           -0.97986417       -2.20803269        0.32409279
 C           -0.02136497       -2.58507961       -0.63158219
 C           -3.11784029       -1.19534595        0.76599164
 C           -2.29925325       -1.93931005       -0.06773827
 C           -3.61385471        1.07257745        1.15299110
 C           -3.80741761       -0.03364099        0.22391205
 C           -2.08439559        2.98013144        1.08762035
 C           -3.32077747        2.33603378        0.66778586
 C           -0.14131850        3.58362696       -0.26892140
 C           -1.51075985        3.63973160       -0.07453612
 C            1.66042509        2.40286006       -1.20147012
 C            0.38246523        3.01893379       -1.50581715
 C            2.94199408        0.37684446       -1.18392042
 C            3.32645829       -0.82042107       -1.78263264
 C            2.00417929        1.20531172       -1.81319481
 C            2.00468499       -2.56567001       -2.58135040
 C            2.61262028       -1.29031158       -2.94905986
 C           -0.36690581       -2.65669065       -1.99356917
 C            0.61878575       -2.49666103       -2.96302093
 C           -2.64942673       -1.98854490       -1.40809772
 C           -1.67284952       -2.39935207       -2.38940732
 C           -3.77614134        0.17986432       -1.15296246
 C           -3.43186319       -0.89357761       -1.97131868
 C           -3.51228447        2.60078062       -0.74271066
 C           -2.38293383        3.39061380       -1.20694111
 C           -3.67369027        1.48104205       -1.65585340
 C           -0.48144825        2.39874665       -2.40408483
 C           -1.83641937        2.72804254       -2.37833133
 C           -2.81923079        1.74880671       -2.80506046
 C            1.21244418        0.72056940       -2.86357823
 C            1.56149233       -0.46531731       -3.50475625
 C            0.50892357       -1.38322561       -3.88816072
 C           -0.06149955        1.25675080       -3.09147210
 C           -1.88324036       -1.59469164       -3.58425326
 C           -2.92887014       -0.62855304       -3.30456656
 C           -2.40427311        0.69157189       -3.59609058
 C           -0.75101132       -0.87026456       -4.13144781
 C           -0.98384932        0.53884476       -3.85902982
