   70
C70 / DATE: 7/ 1/2024 / Origin: Program Fullerene / C70 from database
 C            1.38826679       -0.04780338        5.16499893
 C            0.60497724       -1.21535538        4.79442517
 C            1.47469899       -2.09385286        4.05472681
 C            2.59446116       -0.05721547        4.35476542
 C            2.71211355       -1.37088914        3.77661075
 C            2.54142069        1.08167143        3.46180836
 C            0.61887200        1.12590374        4.79720606
 C            1.38633945        1.88768950        3.82972393
 C           -0.61015153       -0.74861256        4.15456274
 C           -0.70136319        0.68036007        4.41134434
 C           -0.98234420       -1.24103973        2.89600928
 C            1.00629615       -2.62663975        2.79237158
 C           -0.24045427       -2.25908340        2.27726528
 C            2.95488709       -1.48052522        2.35134501
 C            2.14148088       -2.58691459        1.89849908
 C            2.85016161        0.93733699        2.10814559
 C            3.01679593       -0.34012280        1.54347470
 C            2.52929154        2.00689725        1.28465440
 C            0.70629069        2.56933823        2.82139746
 C            1.39943084        2.84944923        1.64747362
 C           -1.39539245        1.45711764        3.50433467
 C           -0.68956583        2.51936171        2.79282399
 C           -1.91784374       -0.52047359        2.15014728
 C           -2.21993935        0.78750408        2.52274867
 C           -2.26697428       -0.93949520        0.86641889
 C           -0.47832015       -2.55910422        0.93053644
 C           -1.58265377       -2.00523489        0.27575797
 C            1.87593877       -2.66714392        0.54994155
 C            0.59288718       -3.03891027        0.17287411
 C            2.86726275       -0.52836942        0.15856380
 C            2.57399743       -1.81786904       -0.29883919
 C            2.51169045        1.83392345       -0.15095951
 C            2.65111828        0.56510274       -0.69068525
 C            0.67833520        3.17275729        0.42622813
 C            1.48697531        2.70917603       -0.68731472
 C           -1.40447755        2.73521851        1.54022048
 C           -2.48043167        1.76060722        1.48605737
 C           -0.70460363        3.02047114        0.36893364
 C           -3.01576974       -0.07418920        0.06619708
 C           -2.86961884        1.29956800        0.24499703
 C           -3.48427780       -0.52749088       -1.15839478
 C           -1.82947160       -2.33522471       -1.06520717
 C           -2.82215566       -1.66124866       -1.77249710
 C            0.39854515       -3.36251373       -1.15988936
 C           -0.85805963       -3.01638761       -1.79348808
 C            2.45509698       -2.05252273       -1.66256822
 C            1.46847888       -3.03330664       -2.08651518
 C            2.21679714        0.35239466       -2.00185159
 C            2.34463345       -0.91740299       -2.55575985
 C            0.84825688        2.33615634       -1.85768275
 C            1.39222646        1.30120627       -2.61878248
 C           -1.30379798        2.72308710       -0.86129465
 C           -2.54257528        2.07487892       -0.85756957
 C           -0.50051767        2.65043017       -2.00289413
 C           -3.75046791        0.45262507       -2.20198330
 C           -3.16827452        1.77512374       -2.06032255
 C           -2.59012066       -1.33352545       -3.17298098
 C           -3.29923576       -0.10025736       -3.46623539
 C           -0.57188710       -2.60107177       -3.16099472
 C            0.87059223       -2.56913982       -3.32210137
 C            1.50071758       -1.31309534       -3.67479158
 C           -1.33504535       -1.58543336       -3.72726756
 C            0.83906817        1.02627027       -3.86693068
 C            0.72703051       -0.35268423       -4.30275859
 C           -0.69119343       -0.61331350       -4.50457904
 C           -1.09677914        2.47572586       -3.24709122
 C           -2.49539932        2.09868685       -3.30222452
 C           -2.62025553        0.95331432       -4.19131015
 C           -0.39435481        1.69505654       -4.24887790
 C           -1.31166007        0.67905242       -4.74494648
