   70
C70 / DATE: 7/ 1/2024 / Origin: Program Fullerene / C70 from database
 C            1.51839687        0.07451856        4.42531676
 C            0.70657562       -1.11446854        4.23022941
 C            1.48521730       -2.04028136        3.44516672
 C            2.62830141        0.00502636        3.48995241
 C            2.67728592       -1.34031775        2.98803507
 C            2.47856382        1.07235881        2.52858170
 C            0.71161104        1.21790279        4.05507082
 C            1.40767314        1.93050005        3.00651748
 C           -0.57625155       -0.70256245        3.70757765
 C           -0.62630420        0.74960088        3.76292778
 C           -1.07842721       -1.34613958        2.57729011
 C            0.83934184       -2.85767365        2.52252199
 C           -0.45504576       -2.50931625        2.09633057
 C            1.67988513       -3.53656918        1.64206208
 C            3.05980288       -1.55368140        1.67390776
 C            2.90556361       -2.86247643        1.24931557
 C            2.54513201        0.77936083        1.16130447
 C            2.88345020       -0.51553300        0.73305408
 C            1.94613548        1.67503577        0.26782850
 C            0.64226583        2.57464843        2.05371469
 C            1.19658925        2.73087038        0.79615046
 C           -1.33489772        1.40920015        2.77062325
 C           -0.75086644        2.51752719        2.14880731
 C           -2.00666223       -0.66466409        1.77902984
 C           -2.27626802        0.68125374        2.05728227
 C           -2.41672583       -1.20812834        0.55733721
 C           -1.01933626       -3.16625911        1.00459816
 C           -1.98626424       -2.46704474        0.17988760
 C            1.14030938       -4.18597080        0.46425537
 C           -0.18564516       -3.96343100        0.12116060
 C            3.18001323       -3.18589673       -0.12329225
 C            2.17326292       -4.14347981       -0.55649675
 C            2.83997187       -0.81689445       -0.63904630
 C            3.19272907       -2.09933641       -1.07308227
 C            1.81801256        1.34031513       -1.08597206
 C            2.21679546        0.07091861       -1.53376972
 C            1.16682339        2.22330797       -1.96089976
 C            0.57053820        3.62484052       -0.05008826
 C            0.66838155        3.42884157       -1.47798493
 C           -1.49994147        3.21518746        1.19612102
 C           -0.80534831        3.97948753        0.25184247
 C           -3.13755803        1.39202622        1.23236176
 C           -2.79822124        2.77031810        0.92632917
 C           -2.91988488       -0.36549707       -0.42543295
 C           -3.57397976        0.78088518       -0.00639756
 C           -2.41280426       -0.45833561       -1.73051783
 C           -1.63921170       -2.67882800       -1.21368500
 C           -0.55208834       -3.64160771       -1.25447867
 C           -1.65242194       -1.58538134       -2.08487184
 C            1.81301352       -3.79686046       -1.91442539
 C            2.59326561       -2.62299790       -2.27785673
 C            0.42299029       -3.51648176       -2.23232597
 C            1.79876777       -0.38496352       -2.79742608
 C           -0.68250988       -1.48400125       -3.09466080
 C            1.73385715       -1.74900835       -3.02689975
 C            0.41100175       -2.34890546       -3.08885644
 C            0.66718311        1.74445604       -3.16374582
 C            0.86010821        0.35569837       -3.49187524
 C           -0.45499807       -0.24069972       -3.67225616
 C           -2.44668828        0.65353035       -2.58467583
 C           -0.69636961        2.06597204       -3.55117186
 C           -1.43070587        0.81224929       -3.51488288
 C           -0.53474501        3.99672445       -2.07513681
 C           -1.43160029        4.38078131       -0.99580328
 C           -1.29201252        3.20111439       -3.02529648
 C           -3.45609650        3.09670298       -0.32868429
 C           -3.83856280        1.83982078       -0.95471056
 C           -3.20042420        1.77610779       -2.24978348
 C           -2.75482321        3.88972617       -1.31569648
 C           -2.65512561        3.09687707       -2.53030563
