   70
C70 / DATE: 7/ 1/2024 / Origin: Program Fullerene / C70 from database
 C            1.16285456       -0.05708233        4.41546818
 C            2.38498401       -0.35641539        3.70735987
 C            2.35279815       -1.76261342        3.33739740
 C            0.34080145       -1.25757832        4.42765543
 C            1.05783290       -2.29772344        3.71635315
 C           -0.99415445       -0.88813101        3.98474499
 C            0.33980998        1.03037569        3.93257476
 C           -1.03388202        0.56132254        3.87243885
 C            0.79836024        1.86017273        2.91458393
 C            2.69994850        0.40635436        2.51309280
 C            1.87369889        1.45400636        2.10856333
 C            2.78054021       -1.86316443        1.95212941
 C            3.16239928       -0.53388891        1.51279487
 C            2.07690975       -2.67724011        1.06790399
 C            0.36849811       -3.08475236        2.80630684
 C            0.99334637       -3.42443046        1.53765483
 C           -1.64510911       -1.65971397        3.02731522
 C           -1.03948430       -2.81838200        2.53782355
 C           -2.69233815       -1.08631094        2.31340675
 C           -1.90112015        1.15721873        2.95766196
 C           -2.83929175        0.36276879        2.29929332
 C           -0.12454138        2.75702994        2.39726911
 C           -1.53165978        2.38044271        2.39862003
 C            0.15187259        3.42769277        1.14471635
 C            1.94458272        1.87953165        0.77646902
 C            1.23247963        3.01101674        0.37684948
 C            2.98979417       -0.21629578        0.17568655
 C            2.58160757        1.07056899       -0.17615835
 C            2.20038108       -2.43718627       -0.30312132
 C            2.80574119       -1.25173128       -0.73337033
 C            1.41588364       -3.17144853       -1.19042284
 C           -0.07849580       -3.78935506        0.62653002
 C           -1.31340616       -3.25391310        1.17452875
 C            0.14605099       -3.70064031       -0.73492048
 C           -3.01015325       -1.57791208        0.98230465
 C           -2.15842907       -2.49330063        0.37033320
 C           -3.32090403        0.74724803        0.97874037
 C           -3.55608897       -0.46900619        0.22106790
 C           -2.09341107        2.79388121        1.12238676
 C           -1.12707087        3.67672159        0.49802308
 C           -2.78390529        1.86699102        0.34907431
 C           -1.15306043        3.83486000       -0.87640726
 C            1.31038651        3.44643762       -0.94107778
 C            0.11461901        3.98838502       -1.56504737
 C            2.57452577        1.42571474       -1.52816114
 C            1.98577444        2.62391842       -1.92585444
 C            2.86632564       -0.95036887       -2.08876596
 C            2.83182049        0.44668378       -2.48876915
 C            1.21598203       -2.68988154       -2.54403734
 C            2.05734925       -1.70594372       -3.03204882
 C           -0.88325618       -3.12748855       -1.58433640
 C           -1.95504316       -2.44650411       -1.01378050
 C           -0.22178630       -2.56665714       -2.75434407
 C           -3.39311685       -0.44972139       -1.15138644
 C           -2.63797690       -1.51329518       -1.78939872
 C           -2.69224303        1.91264856       -1.04774384
 C           -1.97727372        2.93554999       -1.66934824
 C           -3.04191479        0.79783802       -1.80587409
 C           -0.01675331        3.38773280       -2.87828731
 C            1.20878115        2.67324697       -3.16081050
 C           -1.26769317        2.65318275       -2.91044986
 C            2.14635132        0.51688111       -3.76567147
 C            1.53215389       -0.77471570       -4.01004948
 C            1.13146059        1.53417811       -3.94505936
 C           -0.74513709       -1.42343364       -3.36212279
 C           -1.99551170       -0.95563220       -2.97050126
 C           -2.26795968        0.47412023       -2.99427638
 C           -1.28523951        1.35880426       -3.43009562
 C            0.09561506       -0.57831117       -4.08273301
 C           -0.15490970        0.85664328       -4.08069109
