   70
C70 / DATE: 7/ 1/2024 / Origin: Program Fullerene / C70 from database
 C            1.70183762        0.00581081        4.66039528
 C            0.85786011       -1.16182792        4.48767663
 C            1.31706944       -1.88096872        3.30999694
 C            2.67092471        0.00994213        3.58119406
 C            2.51370074       -1.21325809        2.82466211
 C            2.53841552        1.25777563        2.86230646
 C            0.86146103        1.17890809        4.50061757
 C            1.33190304        1.91434882        3.33822516
 C           -0.52168201       -0.71905964        4.53280917
 C           -0.51943411        0.74030966        4.52952306
 C           -1.44826645       -1.39972912        3.75503762
 C            0.37706375       -2.34013755        2.38472631
 C           -0.97265428       -2.32132257        2.72983484
 C            0.74562948       -2.45129804        1.03903038
 C            2.71509471       -1.15917823        1.45429203
 C            2.03782918       -2.07578174        0.66694146
 C            2.76588069        1.24750181        1.49632412
 C            3.11356335        0.04704429        0.86948719
 C            2.12191538        2.20968379        0.73782368
 C            0.40452999        2.38064315        2.40211778
 C            0.80613207        2.53395203        1.06940711
 C           -1.43703463        1.42162937        3.74081912
 C           -0.95277259        2.33822609        2.71419102
 C           -2.58342846       -0.68247318        3.20147889
 C           -2.57463560        0.70823950        3.18767309
 C           -1.97865310       -2.37260021        1.68702964
 C           -3.01696653       -1.40999349        2.02078734
 C           -0.22983606       -2.65687960        0.05228827
 C           -1.58691320       -2.50909325        0.36084756
 C            0.15595797       -2.84773664       -1.27800447
 C            2.43590115       -2.19894284       -0.65173686
 C            1.49168834       -2.68480468       -1.63610320
 C            3.35854603        0.07307655       -0.50901278
 C            3.18217033       -1.10244022       -1.24571038
 C            2.56160948        2.38543048       -0.56099739
 C            3.32841315        1.30780510       -1.15957881
 C            1.62846924        2.86011250       -1.55957493
 C           -0.15036035        2.65849260        0.05011014
 C            0.26762957        2.83748934       -1.27253907
 C           -1.93284405        2.35923311        1.64530676
 C           -2.98743357        1.41844860        1.98867964
 C           -1.50574297        2.44684315        0.32533312
 C           -3.64931982       -0.72875847        0.99029810
 C           -3.62303996        0.72724374        0.96727853
 C           -2.49203740       -2.15812304       -0.64209433
 C           -3.45478882       -1.19062811       -0.37353819
 C           -0.81634846       -2.86252135       -2.27346673
 C           -2.14166097       -2.36420651       -1.96792155
 C           -0.47985611       -2.40270805       -3.61125198
 C            1.83672685       -2.07569648       -2.91346222
 C            2.84005442       -1.05296860       -2.66199030
 C            0.83910594       -1.84944384       -3.85250211
 C            3.12337513        1.37430181       -2.59559149
 C            2.09856877        2.37607409       -2.84729668
 C            2.75844905        0.17043852       -3.31384508
 C            0.66676680       -0.51813710       -4.41616637
 C            1.13970765        1.81367997       -3.77877179
 C            1.59631528        0.47772093       -4.13415788
 C           -0.64234477        2.65760713       -2.31176483
 C           -0.21236669        2.04390973       -3.56152200
 C           -2.37115720        2.04130608       -0.69332390
 C           -3.38848047        1.13816522       -0.40637967
 C           -3.54048213       -0.03493602       -1.24899707
 C           -1.97270839        2.16621548       -2.01535511
 C           -2.44962441       -1.32244373       -2.93652371
 C           -1.46452906       -1.40480230       -3.99927241
 C           -0.75456315       -0.20627393       -4.39748535
 C           -1.18606254        1.02368174       -3.91712421
 C           -2.87991886       -0.07926263       -2.47422605
 C           -2.27231878        1.08714481       -2.94726127
