   70
C70 / DATE: 7/ 1/2024 / Origin: Program Fullerene / C70 from database
 C            1.64744563       -0.00029072        4.45417880
 C            0.82601668       -1.19120755        4.36215298
 C            1.38070932       -2.04660640        3.32561890
 C            2.65515914       -0.07984340        3.41250951
 C            2.51716720       -1.35957667        2.74184422
 C            2.56174175        1.12249158        2.60585783
 C            0.79931570        1.14072237        4.15863342
 C            1.40756745        1.87240449        3.06932920
 C           -0.55601749       -0.76881173        4.24047747
 C           -0.55751996        0.66411043        3.98316929
 C           -1.41555981       -1.57391775        3.51191057
 C            0.50923341       -2.72148228        2.47884793
 C           -0.86167886       -2.68171946        2.74678140
 C            0.94089366       -3.06995522        1.19793747
 C            2.67512812       -1.39151633        1.36205339
 C            2.01299064       -2.37202903        0.61824715
 C            2.76284245        1.00831316        1.23201594
 C            3.11840407       -0.23810937        0.71676432
 C            2.16577223        1.94611139        0.38090664
 C            0.58835645        2.43961416        2.10791716
 C            1.16915696        2.77849911        0.89534590
 C           -1.30957998        1.16542774        2.92114502
 C           -0.79229035        2.21305073        2.14392468
 C           -2.43218376       -0.95081450        2.68351355
 C           -2.39181578        0.42079042        2.44705556
 C           -1.81076761       -2.98674812        1.68769368
 C           -2.70136006       -1.84344149        1.56655370
 C            0.07752853       -3.81518794        0.40076003
 C           -1.35008725       -3.60128231        0.53651629
 C            0.34792249       -3.95935388       -1.01138206
 C            2.28474398       -2.47474411       -0.75382329
 C            1.46784337       -3.24495896       -1.57988391
 C            3.46120343       -0.32348553       -0.62098753
 C            3.12804919       -1.53623791       -1.34650788
 C            2.31333511        1.80103412       -1.00347375
 C            3.15572548        0.80393872       -1.48271594
 C            1.43026731        2.45111856       -1.87653752
 C            0.44614369        3.59738350        0.04570884
 C            0.68080257        3.51684947       -1.38161163
 C           -1.58643435        2.79956721        1.15290276
 C           -0.98791014        3.68554486        0.25550518
 C           -3.13374293        0.91082819        1.38064979
 C           -2.79647810        2.20016898        0.81058597
 C           -2.95942718       -1.28609237        0.31549786
 C           -3.45105640        0.01093720        0.27962617
 C           -1.81487597       -3.10619541       -0.74541577
 C           -0.84934061       -3.54008182       -1.73001715
 C           -2.34008545       -1.81917792       -0.81870226
 C            1.00927256       -2.69230691       -2.84440469
 C           -0.43659495       -2.60911712       -2.75634168
 C            2.90664052       -1.16338574       -2.73333299
 C            2.93938275        0.28857116       -2.81463161
 C            1.70152349       -1.62647876       -3.39784340
 C            1.09622098        1.87157018       -3.11462553
 C            1.76109791        0.72397532       -3.52916939
 C            0.95784488       -0.45205103       -3.82641724
 C           -0.18822821        2.03888860       -3.62287940
 C           -0.55128117        3.91280636       -2.04039532
 C           -1.60463671        3.93189215       -1.03729241
 C           -1.01898393        3.12738122       -3.15808827
 C           -3.22880398        2.16956134       -0.57927726
 C           -3.37317617        0.76974952       -0.95028331
 C           -2.67023107        3.05561373       -1.48701316
 C           -2.31420740        2.56625724       -2.80663741
 C           -2.02855047       -0.98778263       -1.90829028
 C           -1.04045818       -1.35865065       -2.83734585
 C           -0.42140281       -0.38255071       -3.62063283
 C           -1.02599209        0.86021231       -3.75476077
 C           -2.64888465        0.26060349       -2.02391267
 C           -2.25380528        1.12920271       -3.03550440
