   70
C70 / DATE: 7/ 1/2024 / Origin: Program Fullerene / C70 from database
 C            1.29203621        0.12435403        4.47470668
 C            2.51005077       -0.20392625        3.76750904
 C            2.49559812       -1.63475854        3.53050990
 C            0.45162763       -1.06483874        4.50332030
 C            1.14069916       -2.10518120        3.76229158
 C           -0.88889368       -0.67662218        4.09962895
 C            0.48566494        1.20922583        3.96604426
 C           -0.89555225        0.76391577        3.92906221
 C            0.94707928        1.97042703        2.89620805
 C            2.77067939        0.44734529        2.49365598
 C            1.87575221        1.40229059        2.01445126
 C            3.08821264       -1.86564105        2.23076120
 C            3.27144949       -0.56955488        1.58998017
 C            2.58619414       -2.90513408        1.46584733
 C            0.47743611       -2.78125893        2.73806174
 C            1.22958589       -3.37647097        1.72556289
 C           -1.57173161       -1.46279683        3.18971323
 C           -0.88863061       -2.57123736        2.53553013
 C           -2.42924865       -0.82386640        2.20730290
 C           -1.72882016        1.36471930        2.98838402
 C           -2.44011236        0.56502750        2.07512923
 C            0.05770578        2.91116740        2.40318136
 C           -1.35882098        2.64994148        2.60531325
 C            0.20233069        3.36919341        1.03904125
 C            1.70505799        1.54838664        0.62904318
 C            0.88482857        2.56453928        0.13270050
 C            3.01380228       -0.45730823        0.22813238
 C            2.32737661        0.66263845       -0.25732830
 C            2.74181227       -2.83128457        0.02746871
 C            3.08027474       -1.61047865       -0.55315329
 C            0.60873232       -3.64708852        0.43704326
 C            1.66467867       -3.61172088       -0.55666622
 C           -1.45090894       -2.70768615        1.19901932
 C           -2.40978675       -1.63854905        1.00606217
 C           -0.62758688       -3.07855625        0.14523669
 C           -2.47954568       -1.00143041       -0.22223448
 C           -2.89142077        1.11182290        0.86361562
 C           -2.99092795        0.29070835       -0.26788351
 C           -2.07704503        3.30542764        1.54078607
 C           -1.08384092        3.91182064        0.66692941
 C           -2.93327118        2.49504828        0.70831284
 C           -1.53551766        3.71097075       -0.68604772
 C           -2.83571518        3.05977496       -0.62114685
 C            0.52093235        2.57071987       -1.22233571
 C           -0.63170989        3.26721841       -1.64225634
 C            2.11914361        0.79548187       -1.63278366
 C            1.23195725        1.76167525       -2.12014575
 C            2.96502728       -1.49159240       -1.92974328
 C            2.57909546       -0.20860139       -2.48857276
 C            1.32991133       -3.36883785       -1.87757076
 C            2.22043406       -2.51727278       -2.64158261
 C           -0.86977840       -2.56929612       -1.13419242
 C           -1.74744855       -1.49293662       -1.30793664
 C           -0.02766195       -2.93919805       -2.17840656
 C           -1.84785534       -0.85623060       -2.55240162
 C           -3.29505688        0.83831213       -1.51021138
 C           -3.21734036        2.28023224       -1.70021511
 C           -2.75474437        0.19687738       -2.69957719
 C           -1.16992842        3.01623736       -2.89798219
 C           -2.52878305        2.50665334       -2.95755196
 C           -2.48353498        1.24432306       -3.66651370
 C            0.86284823        1.71382615       -3.46461344
 C           -0.39539776        2.29628438       -3.87619274
 C           -1.22926902        1.21148118       -4.38357532
 C            1.86826729       -0.48023117       -3.72824560
 C            1.43066271       -1.86191175       -3.66103941
 C            0.02793975       -2.11995563       -3.37598662
 C           -0.86404577       -1.06552232       -3.52979005
 C            0.94526998        0.44938832       -4.16448655
 C           -0.43022320        0.00952035       -4.30717729
