   70
C70 / DATE: 7/ 1/2024 / Origin: Program Fullerene / C70 from database
 C            1.18700930       -0.03837161        4.66307756
 C            2.40089457       -0.35504220        3.94929615
 C            2.28481200       -1.73290827        3.49679279
 C            0.36406916       -1.23867614        4.66214901
 C            0.89721058       -2.10810469        3.63219291
 C           -1.01162252       -0.81055410        4.55678760
 C            0.35567451        1.03762737        4.16633486
 C           -1.00841155        0.63940626        4.42718576
 C            0.64117181        1.62753089        2.93583256
 C            2.75134470        0.43737847        2.78670247
 C            1.85187399        1.36157572        2.27499657
 C            2.87311415       -1.79509589        2.18322700
 C            3.38281930       -0.47165565        1.86103042
 C            2.20577249       -2.47900410        1.17665035
 C            0.14695439       -2.34833892        2.47696653
 C            0.80480225       -2.57658912        1.25111745
 C           -1.81418825       -1.32868806        3.46855281
 C           -1.24401213       -2.16355818        2.51006754
 C           -2.01588738        0.98891931        3.44643566
 C           -2.66505045       -0.24209321        3.02110103
 C           -0.38149630        2.29539059        2.25455140
 C           -1.72049687        1.93880923        2.47653284
 C           -0.04311579        3.06873935        1.14815102
 C            2.01985765        1.78046714        0.95558495
 C            1.22811321        2.81972662        0.49244150
 C            3.44557164       -0.14045144        0.51221948
 C            2.73740457        0.98468042        0.04680556
 C            2.80980033       -2.40819359       -0.07220125
 C            3.60395799       -1.22162832       -0.34342552
 C            2.02663998       -2.65948008       -1.26088981
 C            0.05268708       -2.72008285        0.07577339
 C            0.64807997       -2.55406054       -1.17323476
 C           -1.99367607       -2.41311620        1.36984094
 C           -1.32383546       -2.81462770        0.15129445
 C           -3.20546378       -0.30108135        1.73775481
 C           -3.05372833       -1.47998983        1.00907412
 C           -2.64242635        2.06808570        1.44486240
 C           -3.41531106        0.89762395        1.05851253
 C           -1.03262238        3.33810317        0.11844440
 C           -2.30034683        2.80536387        0.24375623
 C            1.04231765        3.00025429       -0.93080133
 C           -0.36565519        3.28013148       -1.16717866
 C            2.59631889        1.19997477       -1.34036644
 C            1.72097878        2.18218246       -1.82402218
 C            3.59090964       -0.99908241       -1.76426991
 C            2.71780899       -2.00643048       -2.34872186
 C            3.14211776        0.28687561       -2.24418082
 C            1.93053665       -1.34545011       -3.35995095
 C            2.43940592        0.01264464       -3.47949138
 C           -0.10058229       -2.05526086       -2.25572700
 C            0.55437122       -1.54237385       -3.39428809
 C           -2.12078161       -2.35052741       -0.96629940
 C           -3.14992770       -1.46268522       -0.44178794
 C           -1.50268034       -2.01601615       -2.16603126
 C           -3.54444969        0.90938103       -0.38954102
 C           -2.89819535        2.11799036       -0.88614240
 C           -3.42725654       -0.27454968       -1.11453227
 C           -0.99030014        2.69364972       -2.26589312
 C           -2.24384826        2.07242177       -2.11403114
 C            1.22527171        2.09834957       -3.12849477
 C            1.59213290        0.98142792       -3.98600264
 C           -0.18089388        2.39713037       -3.36193128
 C           -0.15030535       -0.76985074       -4.31277246
 C            0.38438279        0.53581352       -4.66003870
 C           -0.65576721        1.51640640       -4.40890890
 C           -2.22888234       -1.20762456       -3.03200028
 C           -3.10068449       -0.19307368       -2.46524158
 C           -2.65539120        1.08087197       -3.00252883
 C           -1.58043371       -0.62732267       -4.18456644
 C           -1.88846175        0.79670593       -4.19660266
