   70
C70 / DATE: 7/ 1/2024 / Origin: Program Fullerene / C70 from database
 C            1.65879975       -0.09362455        4.66282714
 C            0.83451064       -1.28186181        4.65816013
 C            1.14222701       -2.05051180        3.46138078
 C            2.58821845       -0.21553376        3.56201536
 C            2.26498953       -1.41161812        2.80729835
 C            2.54920086        1.03700430        2.84806135
 C            0.78863458        1.03793439        4.37145958
 C            1.29200472        1.68031135        3.17991194
 C           -0.52863970       -0.83590581        4.83032337
 C           -0.56619970        0.54678310        4.36190736
 C           -1.51991680       -1.68260027        4.37823095
 C            0.07620685       -2.52142342        2.70108164
 C           -1.15064661       -2.65749993        3.35554914
 C            0.12031681       -2.40848842        1.29675710
 C            2.28184197       -1.30869787        1.42315621
 C            1.27631636       -1.91542798        0.66832166
 C            2.86801867        1.01211017        1.51033342
 C            2.95946887       -0.22515646        0.86819089
 C            2.37422824        2.05577733        0.75602472
 C            0.42230593        1.99004011        2.12767390
 C            1.01485977        2.34203010        0.90733506
 C           -1.41132370        0.88001862        3.30042926
 C           -0.88356168        1.47003603        2.13416759
 C           -2.74318926       -1.06468827        3.92164824
 C           -2.63340870        0.21724364        3.24165672
 C           -2.33681969       -2.94132183        2.58786543
 C           -3.36813535       -2.00787160        3.02097106
 C           -1.01172256       -2.71482371        0.52190500
 C           -2.25480171       -2.86408312        1.14801948
 C           -1.03107502       -2.36204942       -0.83436008
 C            1.29992551       -1.73614136       -0.71915093
 C            0.16030043       -2.01878483       -1.48126507
 C            3.15619376       -0.19934187       -0.50862090
 C            2.37694983       -1.05271103       -1.29954676
 C            2.96724590        2.21507392       -0.47728665
 C            3.56676496        1.02376908       -1.03841866
 C            2.21569321        2.83327162       -1.54003685
 C            0.22155448        2.48801489       -0.23504095
 C            0.82822753        2.85938851       -1.44442311
 C           -1.63577389        1.47353105        0.94735482
 C           -1.08876669        1.99558862       -0.22993343
 C           -3.32934770        0.10310325        1.97704115
 C           -3.79329718       -1.26604771        1.85505508
 C           -3.33959215       -2.00878297        0.70500762
 C           -2.78585505        0.68915765        0.84218529
 C           -2.24184954       -1.89304169       -1.35088415
 C           -3.10364371       -1.30183083       -0.45099133
 C           -3.06692466        0.09312456       -0.38539856
 C           -2.27736988       -1.36690449       -2.62367473
 C            0.12579650       -1.68651861       -2.84398213
 C           -1.10451328       -1.46711724       -3.45478699
 C            2.46594561       -0.97950270       -2.68898320
 C            1.28107586       -1.24040339       -3.48103578
 C            3.63108518        1.20902276       -2.46879017
 C            2.84167325        2.39461735       -2.77674585
 C            3.16878306        0.13207715       -3.31031699
 C            1.19195910       -0.20780370       -4.51341285
 C            1.99943619        2.08400959       -3.91025849
 C            2.29301261        0.71409382       -4.30998911
 C            0.07503746        2.90762174       -2.61484946
 C            0.67661338        2.50512877       -3.88610769
 C           -1.76738066        1.80216568       -1.44070060
 C           -2.69869066        0.76191609       -1.54821564
 C           -2.73103415        0.00376219       -2.71841791
 C           -1.29073903        2.42433918       -2.59376254
 C           -1.23345676       -0.41738454       -4.45236025
 C           -0.05042127        0.31220335       -4.85084033
 C           -0.30823266        1.72609434       -4.61191915
 C           -2.20358212        0.54605680       -3.94811757
 C           -1.56551127        1.83908399       -3.89668192
