   70
C70 / DATE: 7/ 1/2024 / Origin: Program Fullerene / C70 from database
 C            1.65466553        0.02852666        4.66495792
 C            0.84321795       -1.16759138        4.54415663
 C            1.45712380       -2.02737467        3.55027107
 C            2.70221863       -0.04302199        3.65976387
 C            2.57367802       -1.29788185        2.96374439
 C            2.64257941        1.16317233        2.87694474
 C            0.81056090        1.16526496        4.33947385
 C            1.48402773        1.92660146        3.31807960
 C           -0.52777520       -0.75380556        4.33690251
 C           -0.51474501        0.67280916        4.04615473
 C           -1.34228902       -1.57335913        3.57324601
 C            0.64152513       -2.78017532        2.70664464
 C           -0.74730638       -2.67467896        2.82225632
 C            1.19057533       -3.22363573        1.50756800
 C            2.73247850       -1.33291826        1.58159957
 C            2.32341419       -2.49838852        0.95419391
 C            2.88737146        1.10195776        1.50817913
 C            2.78696724       -0.13457667        0.84138684
 C            2.59425572        2.26261635        0.80970291
 C            0.73182596        2.55872736        2.33743735
 C            1.46172256        3.05165809        1.26845740
 C           -1.17158170        1.13595419        2.90664035
 C           -0.58995751        2.14011876        2.10625475
 C           -2.33885271       -0.95946535        2.71645636
 C           -2.25303687        0.39709955        2.42296385
 C           -1.59653597       -2.91734646        1.66273047
 C           -2.63180023       -1.89372988        1.64407030
 C            0.32667203       -3.60385584        0.40109953
 C           -1.03601909       -3.33806089        0.46189335
 C            2.22311377       -2.54097265       -0.48277509
 C            1.05934531       -3.34182345       -0.82758319
 C            2.60861564       -0.16837574       -0.56030657
 C            2.48808833       -1.39932535       -1.22156237
 C            2.55344670        2.24352794       -0.63185259
 C            2.49455145        1.02593486       -1.29202615
 C            0.77298792        3.54726638        0.10244732
 C            1.65052862        3.30640167       -1.03162342
 C           -1.26406067        2.57879386        0.95401953
 C           -0.59067032        3.31750422       -0.02829818
 C           -2.98294971        0.87877436        1.34942810
 C           -2.53632946        2.08217407        0.68082919
 C           -3.08557586       -1.40202059        0.42315786
 C           -3.43862734       -0.05614171        0.32851631
 C           -1.73770177       -3.11429192       -0.71763628
 C           -2.79894592       -2.11745404       -0.73697935
 C            0.37253064       -3.03959262       -1.99788396
 C           -1.02403986       -3.03303752       -1.98418111
 C            2.13214502       -1.43132754       -2.56509017
 C            1.05428008       -2.32097593       -2.97672721
 C            2.05038777        1.00812923       -2.61745345
 C            1.99528529       -0.19536028       -3.30359882
 C            1.10023310        3.26661483       -2.30066057
 C            1.37532872        2.11484064       -3.14347489
 C           -1.17135923        3.50200242       -1.28345411
 C           -0.30728275        3.59119400       -2.44976502
 C           -3.00403093        2.00659202       -0.69195345
 C           -3.36296317        0.62418703       -0.95468490
 C           -2.33283066        2.71929117       -1.66574694
 C           -2.73869962       -1.42810436       -2.01693695
 C           -1.76843440       -2.12061602       -2.84488811
 C           -2.81943036       -0.03920606       -2.05179381
 C            0.30934080       -1.66194081       -4.03167005
 C            0.95285054       -0.38797857       -4.29727969
 C           -1.10575509       -1.41867649       -3.83771860
 C            0.21611811        1.90901726       -4.00237686
 C           -0.85960139        2.72915668       -3.48132794
 C           -2.02740829        2.06828767       -2.92822714
 C           -2.13311563        0.68156520       -3.03575077
 C           -0.08305364        0.61917844       -4.41316549
 C           -1.33129216        0.01214755       -3.96517547
