   70
C70 / DATE: 7/ 1/2024 / Origin: Program Fullerene / C70 from database
 C            1.21829605        0.04597069        4.20260883
 C            2.55573504       -0.29968195        3.78533642
 C            2.56425219       -1.71752961        3.46539071
 C            0.39850804       -1.15175611        4.09257153
 C            1.18304951       -2.16127653        3.41782377
 C           -0.86332269       -0.75905138        3.50942692
 C            0.52260257        1.10773645        3.50173814
 C           -0.85572028        0.68001934        3.36099733
 C            1.12750388        1.76530377        2.42808917
 C            3.12949529        0.40174293        2.65805611
 C            2.45069645        1.46298075        2.06262147
 C            3.38866062       -1.90419887        2.28677331
 C            3.77572133       -0.58282471        1.80377523
 C            3.00419259       -2.86700384        1.36825073
 C            0.69885969       -2.73045364        2.24060055
 C            1.61186123       -3.30058164        1.34825410
 C           -1.39816730       -1.50258554        2.47185512
 C           -0.60520059       -2.44873484        1.80248923
 C           -2.48438289       -0.95476548        1.79964083
 C           -1.60491104        1.22979382        2.33147264
 C           -2.56446623        0.44252639        1.68471973
 C            0.30072170        2.47698545        1.54712587
 C           -1.09088456        2.33411218        1.66592889
 C            0.85613165        3.12898340        0.43737020
 C            2.93666322        1.90602445        0.84116196
 C            2.12289224        2.76581780        0.01169349
 C            3.86346954       -0.33125660        0.43123321
 C            3.62493634        0.96207708       -0.02677324
 C            3.43714349       -2.71339856       -0.00435599
 C            3.80467073       -1.38952217       -0.47403280
 C            1.22691280       -3.49101667       -0.04027139
 C            2.37967361       -3.21477984       -0.86476799
 C           -0.99307764       -2.87415599        0.52678359
 C           -0.01707798       -3.03534323       -0.44693958
 C           -3.12349622       -1.76427027        0.87677455
 C           -2.30253585       -2.67894328        0.11362395
 C           -4.10057263       -1.19132566       -0.01964688
 C           -3.37544350        1.03635890        0.70413431
 C           -4.20491210        0.24868408       -0.09321913
 C           -1.94560680        3.03614147        0.83097353
 C           -3.11349889        2.35014804        0.30382578
 C            0.02372698        3.71177689       -0.51008963
 C           -1.38659899        3.84330280       -0.22778224
 C            0.16860523        3.30676596       -1.90098128
 C            2.30177997        2.36132600       -1.37389084
 C            3.14513823        1.17480046       -1.38523030
 C            1.22053191        2.46091008       -2.24620385
 C            3.16571179       -1.19645375       -1.76736315
 C            2.22380789       -2.28928461       -1.96259275
 C            2.80044856        0.08398277       -2.17758990
 C           -0.17330656       -2.39624104       -1.68720004
 C            0.94803043       -1.98708517       -2.42225216
 C           -2.53626539       -2.38219313       -1.28632345
 C           -3.80447106       -1.68278837       -1.35736520
 C           -1.45420549       -1.97199060       -2.06854235
 C           -4.35309043        0.58535077       -1.49735263
 C           -3.93335670       -0.57222768       -2.26973236
 C           -3.24597389        2.71397746       -1.10225997
 C           -2.11607473        3.54953159       -1.44906812
 C           -1.16444045        3.06057500       -2.43071937
 C           -3.64324758        1.74308753       -2.00671156
 C           -1.60241768       -0.92605829       -2.99582455
 C           -2.77755757       -0.17898432       -3.04527021
 C           -1.42805412        1.87270364       -3.11071114
 C           -2.68617477        1.27243670       -3.00251943
 C            1.00099183        1.44932189       -3.17626547
 C            1.76402320        0.21194346       -3.09923189
 C            0.83428841       -0.89418892       -3.26512871
 C           -0.35922927        1.10484192       -3.56615559
 C           -0.47199236       -0.34608967       -3.55275606
