   70
C70 / DATE: 7/ 1/2024 / Origin: Program Fullerene / C70 from database
 C            1.62792238        0.04171853        5.24823530
 C            0.81088326       -1.15953574        5.21906128
 C            1.50186997       -2.14023788        4.40310269
 C            2.68206439       -0.11808473        4.26108270
 C            2.67009673       -1.49370767        3.82265172
 C            2.52075351        0.92016030        3.26096406
 C            0.79403616        1.15323008        4.82704791
 C            1.39945233        1.75436308        3.65145360
 C           -0.54206036       -0.77159345        4.85674364
 C           -0.57213802        0.67926927        4.72792722
 C           -1.26110205       -1.55748888        3.95993901
 C            0.77924587       -2.79505981        3.32505225
 C           -0.59043989       -2.61063830        3.20414452
 C            2.65188797       -1.75495499        2.39775580
 C            1.60362324       -2.71798295        2.13228952
 C            2.66324985        0.61587684        1.91004909
 C            2.81349528       -0.71131735        1.48991811
 C            2.17040724        1.53629124        0.98999976
 C            0.56998788        2.24811227        2.64698248
 C            1.06256433        2.31545431        1.34394993
 C           -1.39223472        1.26413968        3.77177775
 C           -0.81157027        2.21114229        2.82998704
 C           -2.24020150       -0.93637601        3.08166519
 C           -2.33655034        0.44493441        3.02798252
 C           -1.18699241       -2.65482137        1.88170720
 C           -2.27303501       -1.69574597        1.84437935
 C            1.00704191       -2.68046751        0.87535022
 C           -0.38078043       -2.77707514        0.75254777
 C            2.55655464       -0.99357096        0.15001744
 C            1.71307818       -2.06795681       -0.15860930
 C            2.45100993        1.33674416       -0.35964440
 C            2.70426495        0.03051406       -0.78144494
 C            1.98370235        2.28435523       -1.26520805
 C            0.23033331        2.80313225        0.33661335
 C            0.78621682        3.02478923       -0.91661734
 C           -1.67858715        2.24049539        1.66407785
 C           -2.55518143        1.08768989        1.74389336
 C           -1.13900973        2.55843666        0.42453723
 C           -2.53023829       -1.05805798        0.63559444
 C           -2.73217186        0.32248459        0.59519558
 C           -0.94371189       -2.47196673       -0.48588914
 C           -2.10243633       -1.68685525       -0.53052846
 C            1.22283265       -2.19139765       -1.45786608
 C           -0.12578712       -2.51923728       -1.61352408
 C            2.61184121       -0.30367838       -2.12817677
 C            1.89356160       -1.51427255       -2.47352823
 C            1.92584261        1.97839530       -2.68398218
 C            2.27871173        0.70920302       -3.11390341
 C           -0.07733752        3.03347628       -2.08546342
 C            0.73437327        2.61737788       -3.22078651
 C           -1.81415858        2.11982191       -0.71428231
 C           -2.59326849        0.95943437       -0.63567963
 C           -1.38670550        2.57079048       -1.96284556
 C           -2.49794185       -1.15117525       -1.75434222
 C           -2.80397867        0.21463805       -1.79213347
 C           -0.73519971       -2.40578692       -2.85970981
 C           -2.04949333       -1.79949760       -2.90240987
 C            1.25479861       -1.30907155       -3.76057104
 C            1.51368403        0.06726043       -4.17147296
 C            0.01422784       -1.88629042       -3.98964645
 C            0.10434876        2.08075880       -4.33613695
 C            0.53891130        0.79025854       -4.85408977
 C           -2.05725953        2.12688583       -3.10041232
 C           -2.82962489        0.90233703       -3.00220895
 C           -1.34471767        2.09575137       -4.36579016
 C           -2.21646551       -1.18270770       -4.20266005
 C           -0.92988782       -1.23424406       -4.88218744
 C           -0.63114285        0.09926191       -5.36959486
 C           -2.69245747        0.17951121       -4.25237355
 C           -1.79300790        0.93235869       -5.10995722
