   70
C70 / DATE: 7/ 1/2024 / Origin: Program Fullerene / C70 from database
 C            1.28536838       -0.18902800        4.26668035
 C            2.58692612       -0.54018589        3.74969927
 C            2.52549108       -1.90660531        3.25968424
 C            0.43427000       -1.36506738        4.17207036
 C            1.20203519       -2.43010545        3.55340982
 C           -0.82073644       -0.95810604        3.56296092
 C            0.57827815        0.92376600        3.65754404
 C           -0.77511897        0.48320570        3.38626429
 C            1.21480927        1.72826582        2.71476989
 C            3.14010618        0.27777498        2.69400871
 C            2.56800212        1.50847086        2.39863486
 C            2.99462620       -1.91167598        1.88046885
 C            3.48701373       -0.58381530        1.57653447
 C            2.25914720       -2.59419307        0.92311461
 C            0.58388543       -3.22624733        2.60106386
 C            1.27941223       -3.48607435        1.35376643
 C           -1.38488502       -1.74233880        2.55544299
 C           -0.80575324       -2.97212334        2.24905582
 C           -2.23863233       -1.13636400        1.62839046
 C           -1.45533174        1.02633360        2.30879009
 C           -2.42526180        0.24906251        1.69675272
 C            0.41456524        2.49197048        1.85552879
 C           -0.90330765        2.09679097        1.59949448
 C            1.01147765        3.44961935        1.04697937
 C            3.09759361        2.14862042        1.28796949
 C            2.42247441        3.31489172        0.76791675
 C            3.34326144       -0.06690555        0.29051658
 C            3.48038180        1.31186480        0.15828061
 C            2.21368669       -2.10207557       -0.38375210
 C            2.56995803       -0.76996900       -0.64302932
 C            1.53613957       -2.83608650       -1.35564924
 C            0.28424654       -3.95587701        0.41344430
 C           -1.01798815       -3.55178250        0.93393976
 C            0.53808913       -3.81178154       -0.94046816
 C           -2.65986377       -1.84891558        0.49595109
 C           -1.94479338       -2.97202896        0.07434603
 C           -3.57902892       -1.27260035       -0.37794374
 C           -3.30516843        0.87994178        0.83541163
 C           -4.01648964        0.08935767       -0.14383206
 C           -1.59915346        2.61415137        0.49553582
 C           -2.87161874        2.11338845        0.20135682
 C            0.36101988        3.84473254       -0.18835177
 C           -0.93512422        3.40532933       -0.44961315
 C            2.58612842        3.29919145       -0.67219315
 C            3.02718268        1.96794422       -1.04871890
 C            1.35951935        3.79861970       -1.25365722
 C            2.03393307       -0.10871495       -1.76239097
 C            2.27566989        1.25375061       -1.97365057
 C            1.02702344       -2.15283377       -2.52834175
 C            1.13382592       -0.77335077       -2.59618870
 C           -0.59459288       -3.69698471       -1.83701990
 C           -1.86541855       -3.26359384       -1.28761347
 C           -0.23658149       -2.76548097       -2.89107251
 C           -3.38176378       -1.42625599       -1.80981587
 C           -2.45463732       -2.35360884       -2.25304837
 C           -1.38215980       -1.90233866       -3.12480574
 C           -3.96332413        0.79963315       -1.40949430
 C           -3.33687653        2.08878502       -1.17653586
 C           -3.36574626       -0.09277341       -2.38525985
 C           -1.39066708        3.43362886       -1.76834020
 C           -2.51151885        2.60288837       -2.16241924
 C            0.98241948        3.29102983       -2.48605469
 C            1.46498680        1.96628657       -2.86286613
 C           -0.41872027        3.36193721       -2.84191595
 C            0.14161138       -0.04864509       -3.25174805
 C           -1.17071493       -0.53519804       -3.27943716
 C           -2.24479488        0.34234454       -3.08991063
 C           -2.03859122        1.71399692       -3.21727365
 C            0.38626363        1.28115470       -3.55429800
 C           -0.73646539        2.19100235       -3.63906820
