   70
C70 / DATE: 7/ 1/2024 / Origin: Program Fullerene / C70 from database
 C            1.13078647        0.04333895        4.67287141
 C            2.40968944       -0.34570376        4.13780685
 C            2.28002557       -1.71983855        3.66359317
 C            0.30484859       -1.15079875        4.66545848
 C            0.86948978       -2.02485090        3.65870455
 C           -1.05121411       -0.70424210        4.48770927
 C            0.37713110        1.05854927        3.96617686
 C           -1.00461377        0.72953148        4.21662883
 C            0.76613273        1.41953343        2.67343330
 C            2.94207779        0.40770528        3.02489761
 C            2.10138540        1.24498748        2.28440471
 C            3.00161852       -1.79342184        2.41594037
 C            3.74809743       -0.55138367        2.30732465
 C            2.35373346       -2.26844989        1.27955498
 C            0.20697440       -2.17495583        2.43544808
 C            0.94714680       -2.28798780        1.24617987
 C           -1.82444652       -1.28324537        3.41285123
 C           -1.17929932       -1.96927799        2.37705002
 C           -1.97203139        0.97996124        3.17358412
 C           -2.75102656       -0.23760703        3.05603769
 C           -0.20514516        1.75365596        1.71259120
 C           -1.57164830        1.61139233        1.99798203
 C            0.19545646        2.10372026        0.41669069
 C            2.48368794        1.56402388        0.98235926
 C            1.55956737        2.13604113        0.10721658
 C            4.20730524       -0.19108299        1.05679426
 C            3.67442310        1.02899501        0.47510707
 C            3.06601380       -2.17576427        0.08812023
 C            4.13779434       -1.19618657        0.01399307
 C            2.35967035       -2.14313341       -1.17429275
 C            0.27283768       -2.32780568        0.01771559
 C            0.97923245       -2.21266611       -1.18508433
 C           -1.84826744       -2.07855883        1.15397417
 C           -1.12514951       -2.35400778       -0.00975232
 C           -3.47733463       -0.40852893        1.90060307
 C           -3.13347210       -1.53458906        1.05372827
 C           -2.48320489        1.60883109        0.94540013
 C           -3.55712904        0.71570489        0.99777224
 C           -0.76878805        2.34332820       -0.58028041
 C           -2.12653211        2.15696741       -0.28324414
 C           -0.36998019        2.71616801       -1.87673682
 C            1.96818858        2.43507789       -1.18681204
 C            0.97532544        2.64954896       -2.21823693
 C            3.85733664        0.91492955       -0.96044547
 C            4.02392609       -0.49780255       -1.25152001
 C            3.00093051       -1.16498331       -2.03575727
 C            3.03017026        1.64895353       -1.78894213
 C            1.36797654        1.85388455       -3.37757145
 C            2.19461272       -0.39342755       -2.86628706
 C            2.43137201        0.98076274       -2.92921074
 C            0.31433699       -1.80232670       -2.33557244
 C            0.91914894       -0.86620099       -3.18437969
 C           -1.78380041       -2.38351822       -1.24288102
 C           -1.03499294       -2.09562135       -2.45271778
 C           -3.69917193       -1.23627752       -0.25265209
 C           -4.08175674        0.17197698       -0.23680677
 C           -3.09304309       -1.76717149       -1.37913978
 C           -3.06538489        2.08961320       -1.31179229
 C           -3.93626272        0.93180507       -1.38238623
 C           -1.28539989        2.68575706       -2.92822547
 C           -2.67467905        2.40393345       -2.66393208
 C            0.36820697        1.31169917       -4.16643649
 C            0.14042027       -0.12282039       -4.07280516
 C           -0.92722523        1.95663795       -4.13139188
 C           -1.87674233       -1.30971728       -3.33697877
 C           -3.11403308       -1.01576509       -2.62591964
 C           -3.64664035        0.27121022       -2.64042571
 C           -3.07062651        1.28177372       -3.50820644
 C           -1.29227703       -0.35492577       -4.15925098
 C           -1.93575891        0.93464597       -4.33962938
