   70
C70 / DATE: 7/ 1/2024 / Origin: Program Fullerene / C70 from database
 C            1.36555856       -0.00912619        4.71183129
 C            0.57512956       -1.19262923        4.42290702
 C            1.31280244       -2.00670971        3.48744050
 C            2.53845108       -0.04153340        3.85614297
 C            2.53277058       -1.29146550        3.13528381
 C            2.55850175        1.17762843        3.08603276
 C            0.57636396        1.15200748        4.33628091
 C            1.32619868        1.90381551        3.36396752
 C           -0.74625702       -0.75993980        4.04004894
 C           -0.73578033        0.69488192        3.95921087
 C           -1.42687048       -1.46020557        3.05013725
 C            0.62261363       -2.66714709        2.47554766
 C           -0.75342330       -2.43870386        2.29778907
 C            1.38198605       -3.14262298        1.40909141
 C            2.94318468       -1.30667076        1.80569218
 C            2.59750706       -2.42999702        1.05821394
 C            3.00662990        1.13913494        1.77028515
 C            3.23597408       -0.09978611        1.14617794
 C            2.70099426        2.24877167        0.98806812
 C            0.65973253        2.49305606        2.29337343
 C            1.46838652        2.96418224        1.27134942
 C           -1.38551029        1.29392070        2.88377790
 C           -0.66978695        2.12766933        2.00108989
 C           -2.53239742       -0.81952847        2.49882142
 C           -2.51076243        0.63122907        2.42002384
 C           -3.15162309       -1.32803316        1.28969037
 C           -1.41003317       -3.04404267        1.22364410
 C           -2.61696889       -2.44302515        0.67700136
 C            0.73976326       -3.56522138        0.17874594
 C           -0.64025192       -3.57241542        0.10928144
 C            2.70478200       -2.41313345       -0.38850023
 C            1.50396728       -3.02526890       -0.93439652
 C            3.56236722       -0.12876436       -0.21175439
 C            3.23661557       -1.29942248       -1.00986763
 C            2.87823703        2.20723596       -0.45096670
 C            3.33190393        1.04476677       -1.04027964
 C            0.88107992        3.35381042        0.01562447
 C            1.77012747        2.92545724       -1.05383877
 C           -1.24123347        2.49141365        0.76031613
 C           -0.48504506        3.22987221       -0.17025078
 C           -3.10318057        1.01788849        1.16577505
 C           -3.54080225       -0.18830431        0.47927562
 C           -2.52808737        2.03208117        0.41951973
 C           -3.43980270       -0.23634797       -0.91039244
 C           -2.52515873       -2.47802584       -0.77125071
 C           -1.28679046       -3.15313084       -1.12028853
 C           -2.92979716       -1.38360316       -1.53702508
 C            0.84092183       -2.42051638       -2.00300230
 C           -0.53281776       -2.65450455       -2.17893583
 C            2.65420420       -0.84253131       -2.25793928
 C            2.73786593        0.60766446       -2.29053879
 C            1.51349686       -1.45473259       -2.76963729
 C            1.20684068        2.48795699       -2.25173157
 C            1.69123519        1.32568941       -2.87097378
 C           -0.93746694        3.38589159       -1.47574526
 C           -0.06472339        2.96906719       -2.56427521
 C           -3.00279743        2.17500730       -0.87955001
 C           -3.45105160        0.98366912       -1.58674721
 C           -2.28565550        3.00653362       -1.81149128
 C           -0.88103866        2.30670812       -3.56476227
 C           -2.98384587        1.07383058       -2.95775941
 C           -2.25791776        2.32660457       -3.09634396
 C           -2.46546184       -1.31597595       -2.85129894
 C           -1.22675450       -2.00170675       -3.19092612
 C           -2.49808077       -0.06231890       -3.58310398
 C            0.84628786       -0.78626748       -3.78933288
 C            0.91754819        0.66748273       -3.82786870
 C           -0.39550555        1.17042368       -4.19004340
 C           -0.50088981       -1.17874460       -4.12915497
 C           -1.27645932        0.02675069       -4.36748559
