   70
C70 / DATE: 7/ 1/2024 / Origin: Program Fullerene / C70 from database
 C            1.21292624        0.00741055        4.32998570
 C            2.42915795       -0.28588037        3.61494050
 C            2.35060277       -1.67461633        3.19082674
 C            0.38018571       -1.18795893        4.28316906
 C            0.96996863       -2.07839043        3.30851573
 C           -0.98115591       -0.74427565        4.07339302
 C            0.38841733        1.10311953        3.86784754
 C           -0.96873879        0.70728838        4.17496731
 C            0.64705305        1.70264133        2.63204585
 C            2.74309761        0.49410375        2.43456255
 C            1.79391076        1.35870609        1.89997595
 C            2.96084700       -1.74867401        1.88838869
 C            3.42073138       -0.41367660        1.53944869
 C            2.33828370       -2.48689942        0.89069020
 C            0.25561247       -2.37361494        2.14881582
 C            0.94390879       -2.65905174        0.95389953
 C           -1.74568199       -1.33520157        3.07073260
 C           -1.13100009       -2.17912659        2.13291328
 C           -2.96381089       -0.73356298        2.75890094
 C           -2.00279167        1.41354662        3.58698017
 C           -3.15106751        0.66406091        3.10794794
 C           -0.38668851        2.40217450        2.00248025
 C           -1.67195005        2.38785543        2.55972971
 C           -0.20525624        2.89648422        0.70897160
 C            1.86255262        1.66816942        0.54096409
 C            0.97074523        2.60175488        0.01538600
 C            3.48784584       -0.11048137        0.18711425
 C            2.76557015        0.99033009       -0.30055400
 C            2.95336383       -2.41832961       -0.35138369
 C            3.68207148       -1.19846377       -0.65473575
 C            2.21701636       -2.78186815       -1.54034567
 C            0.21834124       -2.95006999       -0.21289616
 C            0.83767023       -2.89681207       -1.46525110
 C           -1.86652953       -2.64872641        1.05187479
 C           -1.16832525       -3.06129248       -0.15183094
 C           -3.56410303       -0.93994626        1.45288041
 C           -3.06317377       -1.93474471        0.63646467
 C           -3.67359750        1.34939006        1.93902778
 C           -2.83244581        2.50464448        1.69134916
 C           -3.83329353        0.36882905        0.87870953
 C           -1.31405979        3.35887895        0.00222783
 C           -2.63018087        2.89290119        0.38007131
 C           -1.29009247        3.33372218       -1.44373063
 C            1.12055292        3.03438292       -1.29947793
 C           -0.06255420        3.37030279       -2.07868306
 C            2.76873598        1.25719834       -1.67907158
 C            2.04519098        2.33730254       -2.17255547
 C            3.64420993       -1.00087139       -2.08194469
 C            2.81147318       -2.05050210       -2.64838597
 C            3.15640899        0.26340399       -2.58057317
 C            1.94231799       -1.43705355       -3.63724692
 C            2.30943903       -0.03192860       -3.72488369
 C            0.07579396       -2.65474043       -2.60951611
 C            0.60207879       -1.79868476       -3.66274862
 C           -1.96904038       -2.62507406       -1.28527396
 C           -2.92399733       -1.66163168       -0.77880507
 C           -1.33745076       -2.35649916       -2.48387952
 C           -3.36403612        0.67849276       -0.39911525
 C           -3.06540248        2.00587239       -0.69068292
 C           -2.25556944        2.31959172       -1.85183449
 C           -2.86788719       -0.33889193       -1.22090473
 C           -0.41244930       -0.79900930       -3.96396114
 C           -1.56094993       -1.06699474       -3.11544239
 C           -1.84709121        1.29917532       -2.70497497
 C           -2.13973271       -0.03116488       -2.37946409
 C            0.05220974        2.69889962       -3.35689701
 C            1.41236974        2.21453299       -3.47707393
 C            1.36113503        0.90637496       -4.10488887
 C           -0.84086885        1.58669346       -3.62885528
 C           -0.04082353        0.51647557       -4.19833042
