   70
C70 / DATE: 7/ 1/2024 / Origin: Program Fullerene / C70 from database
 C            1.59199660       -0.02938418        4.61226152
 C            0.77998920       -1.20064650        4.34838500
 C            1.36510257       -1.91832514        3.22861901
 C            2.66045131       -0.00447059        3.63014967
 C            2.51201363       -1.15568867        2.76630753
 C            2.65881615        1.30308591        3.01327603
 C            0.75818169        1.13872711        4.38350867
 C            1.45291816        1.99581667        3.44936493
 C           -0.59575866       -0.76151353        4.23019340
 C           -0.56685704        0.67911152        4.02679659
 C           -1.43963620       -1.51423701        3.43368538
 C            0.50924032       -2.48105387        2.28500866
 C           -0.85573400       -2.52700305        2.56459513
 C            0.92301156       -2.56900294        0.95593322
 C            2.68249860       -0.97887043        1.40016829
 C            2.05450799       -1.86478690        0.52700492
 C            3.01741359        1.41034975        1.67319679
 C            3.16222484        0.24150070        0.91218275
 C            2.66661092        2.59386487        1.03014093
 C            0.71974435        2.68803418        2.49115905
 C            1.44973751        3.26270731        1.45477915
 C           -1.18128651        1.22033940        2.89720124
 C           -0.62302739        2.34339470        2.27202003
 C           -2.42970294       -0.82379005        2.63399425
 C           -2.20363575        0.50120880        2.26511028
 C           -1.79860540       -2.74799997        1.47842093
 C           -2.86671538       -1.77231297        1.63078879
 C            0.06352469       -3.12738952        0.01352896
 C           -1.31793172       -3.03027592        0.20334038
 C            0.56762395       -3.42032341       -1.24470513
 C            2.39976153       -1.84873415       -0.82679981
 C            1.71341988       -2.66849522       -1.71854514
 C            3.44680754        0.34509644       -0.44667829
 C            3.05904166       -0.73497136       -1.33910263
 C            2.75663731        2.69423475       -0.41480796
 C            3.20578419        1.60022110       -1.13944165
 C            0.77465828        3.76428588        0.27281237
 C            1.60496412        3.45174861       -0.88098360
 C           -1.32564317        2.95380492        1.23729538
 C           -0.60453288        3.65242850        0.18578927
 C           -2.81202703        1.00425266        1.11000391
 C           -2.43449523        2.24942097        0.62109402
 C           -3.49166024       -1.28970018        0.49611018
 C           -3.51258471        0.14561184        0.26162686
 C           -2.16085097       -2.82465658       -0.89375066
 C           -3.22747369       -1.93437866       -0.77739864
 C           -0.35089485       -3.57607749       -2.35585763
 C           -1.73246528       -3.18503661       -2.16729165
 C            1.36742829       -2.13403876       -3.02579626
 C            0.17853612       -2.82251343       -3.48254592
 C            2.58099183       -0.14601644       -2.58152149
 C            2.61623355        1.29658570       -2.43450426
 C            1.52888383       -0.76717876       -3.25196205
 C            1.01057147        3.13001815       -2.09532235
 C            1.55450102        2.05075663       -2.90614202
 C           -1.22652980        3.32190812       -1.08709464
 C           -2.35487490        2.45052828       -0.81938373
 C           -0.43967984        3.08757557       -2.20394760
 C           -3.44457629        0.35927239       -1.17743469
 C           -3.44609487       -0.94303275       -1.81780157
 C           -2.64122249        1.38427605       -1.67081684
 C           -2.10594591       -2.34652886       -3.29433103
 C           -0.89706853       -2.03869257       -4.03995103
 C           -2.80436370       -1.09827373       -3.03431644
 C            0.46406143        0.00229507       -3.75702642
 C            0.44596380        1.38137753       -3.55935592
 C           -0.78793808        2.00268954       -3.10249251
 C           -1.89116554        1.19149412       -2.84059784
 C           -0.75540053       -0.59813737       -4.07089324
 C           -1.97747397       -0.01448616       -3.53725286
