   70
C70 / DATE: 7/ 1/2024 / Origin: Program Fullerene / C70 from database
 C            1.59728402       -0.07417610        4.77678623
 C            0.79589871       -1.25738284        4.53958510
 C            1.35011577       -1.96971416        3.39667206
 C            2.68380381       -0.08629052        3.81947806
 C            2.53078373       -1.25345410        2.96237874
 C            2.72265935        1.21939830        3.18899507
 C            0.76689497        1.08005840        4.47631577
 C            1.43539615        1.84959897        3.44014985
 C           -0.58907625       -0.83452532        4.46867072
 C           -0.58024914        0.60010725        4.21852710
 C           -1.44847942       -1.62055192        3.72359908
 C            0.46383069       -2.47435303        2.45110954
 C           -0.86227020       -2.62598938        2.85307461
 C            0.76810326       -2.36678795        1.08233171
 C            2.77502269       -1.09901113        1.60444311
 C            1.96306394       -1.75230389        0.66914825
 C            3.24261248        1.28493779        1.90941017
 C            3.47240581        0.03452850        1.20760320
 C            2.61841597        2.17286458        0.94585085
 C            0.67912524        2.31058429        2.36308382
 C            1.29972751        2.55324576        1.13174368
 C           -1.26464012        1.10620630        3.11354133
 C           -0.70908571        2.17864533        2.41327874
 C           -2.47336370       -0.96846645        2.93328558
 C           -2.26550749        0.33857076        2.50738130
 C           -1.86882480       -2.96092213        1.87670534
 C           -2.91557030       -1.94976203        1.96868050
 C           -0.15674713       -2.80593853        0.12121104
 C           -1.47865929       -3.05115968        0.49103248
 C            0.09174722       -2.57301628       -1.23131630
 C            2.22412144       -1.58303056       -0.70077653
 C            1.36436420       -2.17264449       -1.63645737
 C            3.53203707        0.35548658       -0.19354473
 C            3.02543939        1.70892856       -0.36182569
 C            3.12803200       -0.58897427       -1.11658521
 C            2.21871277        1.96127199       -1.46879527
 C            0.51895140        2.86543690        0.01817962
 C            0.90983819        2.42950500       -1.26427359
 C           -1.46762652        2.79212270        1.42767034
 C           -0.78262980        3.29191856        0.25139945
 C           -2.83127184        0.77626568        1.30503875
 C           -2.66251000        2.11431137        0.96488283
 C           -3.21227964       -1.51078281        0.62079417
 C           -2.53305886       -2.42164473       -0.27677820
 C           -3.19122751       -0.15408901        0.31416594
 C           -1.00374912       -2.39058992       -2.08477731
 C           -2.20974802       -1.96831486       -1.54068295
 C           -0.80725953       -2.20284229       -3.44403682
 C            1.63879700       -2.05247239       -2.99983556
 C            0.54421369       -2.10811837       -3.95165089
 C            3.05320868       -0.12250135       -2.41776685
 C            2.50283851        1.21196778       -2.60931374
 C            2.50949629       -0.98534541       -3.43355183
 C            0.61895506       -0.92019258       -4.79316659
 C            1.53033362        1.12560355       -3.67542731
 C            1.75694975       -0.14618770       -4.34758164
 C           -0.03096663        2.34916082       -2.30987362
 C            0.23383542        1.56287116       -3.43480891
 C           -1.73907482        3.30861346       -0.82915403
 C           -2.90306209        2.54604571       -0.39651157
 C           -1.33796320        2.79228146       -2.11741729
 C           -3.13034459        0.20007485       -1.03860860
 C           -2.75255779       -0.76240440       -1.98290374
 C           -3.15605069        1.54206396       -1.40569761
 C           -2.43113839        1.96305993       -2.58956083
 C           -1.60384753       -1.18699262       -4.10852493
 C           -0.68397217       -0.28830301       -4.78377805
 C           -0.83157105        1.01111145       -4.15205912
 C           -2.49551080       -0.36811277       -3.29621091
 C           -2.15712168        1.02050125       -3.56295054
