   70
C70 / DATE: 7/ 1/2024 / Origin: Program Fullerene / C70 from database
 C            1.21434622        0.05424718        4.26045224
 C            2.51761683       -0.32152811        3.76253635
 C            2.46495191       -1.72982815        3.40252717
 C            0.38319976       -1.13835574        4.24006303
 C            1.07390051       -2.14164820        3.46322387
 C           -0.92963639       -0.73593172        3.80780599
 C            0.48018988        1.10251422        3.57284137
 C           -0.90866494        0.69814960        3.56883061
 C            1.00756475        1.67825329        2.42266060
 C            3.04950476        0.39281586        2.62386180
 C            2.35360273        1.47173368        2.08452676
 C            3.18546772       -1.89825062        2.15370014
 C            3.62530536       -0.58385181        1.71383357
 C            2.67508048       -2.77567516        1.21467702
 C            0.46896720       -2.65588183        2.31482380
 C            1.28798611       -3.21264115        1.33075190
 C           -1.61009349       -1.52251442        2.89294128
 C           -0.86514767       -2.32739185        2.00823207
 C           -2.82274455       -0.99983504        2.47143084
 C           -1.76508201        1.19534238        2.59104442
 C           -2.90832774        0.44644576        2.33110747
 C            0.13282527        2.26386581        1.49991853
 C           -1.24759618        1.99748232        1.56746741
 C            0.65649603        3.02038335        0.44658774
 C            2.82839927        1.97058170        0.88114904
 C            1.97644086        2.81110981        0.06763246
 C            3.66259603       -0.27579414        0.35292789
 C            3.54771245        1.06781444       -0.00502111
 C            2.93457983       -2.52236669       -0.18822232
 C            3.39896871       -1.27099619       -0.59746281
 C            0.77424064       -3.39031674       -0.01421532
 C            1.87368386       -3.17425757       -0.93735280
 C           -1.36691376       -2.62043105        0.72589231
 C           -0.48432131       -2.89467514       -0.31612174
 C           -3.49323103       -1.59920143        1.34543528
 C           -2.69207659       -2.34622443        0.40686256
 C           -3.70120625        0.73308958        1.15417486
 C           -4.16279038       -0.53753958        0.61788112
 C           -2.08914296        2.40740746        0.52636967
 C           -3.27682658        1.70916902        0.26167257
 C           -0.19972135        3.56045213       -0.50681920
 C           -1.62740424        3.36270784       -0.37354125
 C            0.13762953        3.38235289       -1.91302935
 C            2.25965888        2.51683512       -1.32747978
 C            3.23636777        1.44177531       -1.37327812
 C            1.20170449        2.54430234       -2.22972489
 C            3.30169367       -0.93282166       -1.94727429
 C            3.11289355        0.45489224       -2.33397441
 C            1.59789291       -2.74118008       -2.22364019
 C            2.46905973       -1.74424372       -2.81898522
 C           -0.77439369       -2.44592008       -1.60985371
 C            0.22909494       -2.39977042       -2.57498757
 C           -2.99254595       -1.84975685       -0.92556267
 C           -3.98423180       -0.79110102       -0.79961375
 C           -1.94429041       -1.71917601       -1.83354119
 C           -3.75361561        1.61926426       -1.04622016
 C           -3.90298454        0.30403727       -1.64426512
 C           -2.19081202        3.43080518       -1.71021815
 C           -1.09923301        3.26154861       -2.65415946
 C           -3.22665557        2.49172551       -2.07312233
 C           -1.91716106       -0.64078631       -2.72554302
 C           -2.97585086        0.26084441       -2.75736441
 C           -1.33342893        2.03524000       -3.38570916
 C           -2.70693847        1.63868055       -3.13363594
 C            0.97175515        1.43100578       -3.04920815
 C            1.99817516        0.51451398       -3.26481284
 C            1.64812385       -0.84826112       -3.61568637
 C            0.26567835       -1.26105727       -3.47347030
 C           -0.33962068        1.06268572       -3.37437700
 C           -0.71066513       -0.28486328       -3.32834962
