   70
C70 / DATE: 7/ 1/2024 / Origin: Program Fullerene / C70 from database
 C            1.79658114       -0.16602714        5.22877213
 C            0.94967873       -1.32755670        5.44220009
 C            1.30045274       -2.32124864        4.44560443
 C            2.62794263       -0.42772984        4.06781395
 C            2.35165524       -1.77251552        3.60365195
 C            2.44603350        0.66363393        3.13178034
 C            0.93699236        0.95711102        4.90049508
 C            1.40050739        1.52969438        3.64291904
 C           -0.42338036       -0.93048730        5.18686806
 C           -0.44090218        0.50871461        4.99025677
 C            0.07223841       -2.76131169        3.80424302
 C           -0.95406370       -1.78607628        4.13159918
 C            0.15973763       -3.20812911        2.49811339
 C            2.26621968       -1.99343175        2.23292024
 C            1.40955117       -2.99485417        1.79224971
 C            2.43395088        0.37512510        1.77795462
 C            2.56673546       -0.94865266        1.35290524
 C            1.84023325        1.29124198        0.91424658
 C            0.45703654        2.03142993        2.74427094
 C            0.75650950        2.04370374        1.37324511
 C           -1.34172221        1.02380934        4.07574033
 C           -0.87774905        2.02481455        3.13005819
 C           -1.70967098       -1.20162111        3.11139416
 C           -2.15528108        0.09928049        3.30228678
 C           -0.89303385       -2.85439233        1.56179910
 C           -1.68021486       -1.73756106        1.81255417
 C            1.10477426       -3.07190544        0.38328427
 C           -0.33641966       -3.03717816        0.23680549
 C            2.52173589       -1.18517364       -0.01917655
 C            1.83740902       -2.30630372       -0.50163934
 C            2.02621137        1.10773881       -0.45209272
 C            2.62795625       -0.08080475       -0.86574333
 C            1.26252901        1.84744942       -1.35907245
 C           -0.20613832        2.48970532        0.45456924
 C            0.10887646        2.50668627       -0.91450880
 C           -1.88967157        2.08550494        2.10556232
 C           -2.64469585        0.84347332        2.16982566
 C           -1.55263687        2.54195976        0.84424398
 C           -2.20396479       -1.01221269        0.72640214
 C           -2.88688299        0.18646588        0.97301272
 C           -0.84782098       -2.30763052       -0.82954513
 C           -1.85204114       -1.36659579       -0.59730658
 C            1.35336783       -2.23433849       -1.79745179
 C           -0.03908241       -2.15522069       -1.95804646
 C            2.74865191       -0.33240347       -2.22462721
 C            2.16277012       -1.56848970       -2.69874056
 C            1.51480641        1.71789490       -2.72926128
 C            2.35952271        0.69682952       -3.16616210
 C            0.69334753        2.37575206       -3.64401223
 C           -0.88751878        2.85128951       -1.83747319
 C           -0.58540769        2.88869269       -3.19432498
 C           -2.51640392        2.31158783       -0.12134169
 C           -3.17982512        1.01676678       -0.09572280
 C           -2.21105800        2.60858783       -1.49445871
 C           -2.32736444       -0.61815971       -1.68368235
 C           -3.12057411        0.49478927       -1.43783863
 C           -2.97386376        1.66009770       -2.28693172
 C           -0.56952665       -1.52619233       -3.08773891
 C           -1.72632174       -0.74399708       -2.94663230
 C            1.66661004       -1.34308800       -4.03335551
 C            2.07244061       -0.00181986       -4.40836215
 C            0.23792811       -1.41168340       -4.22446380
 C            0.49621521        1.82059333       -4.97846356
 C            1.04242428        0.51665364       -5.27977773
 C           -0.06517503       -0.43476048       -5.24967297
 C           -1.59681353        2.39376025       -4.11689349
 C           -2.58085789        1.46760388       -3.59395298
 C           -2.11417646        0.14305934       -3.96181437
 C           -0.93070854        1.72849419       -5.21662090
 C           -1.28866475        0.31955769       -5.14273915
