   70
C70 / DATE: 7/ 1/2024 / Origin: Program Fullerene / C70 from database
 C            1.24313864       -0.19555005        4.37759816
 C            2.52576327       -0.51387223        3.79956642
 C            2.48239577       -1.89711000        3.34530394
 C            0.41727704       -1.39240857        4.32301014
 C            1.13847823       -2.39711674        3.56728927
 C           -0.90525330       -0.98876714        3.87943368
 C            0.47327304        0.88936862        3.80407785
 C           -0.90924986        0.46374925        3.78264928
 C            0.95793483        1.60090370        2.71103475
 C            3.00700013        0.28612336        2.69095668
 C            2.21748415        1.30714628        2.15812911
 C            3.03964879       -1.92789562        2.00260764
 C            3.65871959       -0.63314715        1.78123244
 C            2.31786080       -2.52050394        0.96571904
 C            0.48754214       -3.06045832        2.53723962
 C            1.15525067       -3.23259457        1.25515429
 C           -1.57137717       -1.72849419        2.90339270
 C           -0.91940794       -2.78813530        2.27002900
 C           -2.66005338       -1.13575108        2.27115561
 C           -1.77508742        1.06277012        2.87709822
 C           -2.83694818        0.29976970        2.40185470
 C            0.05455150        2.38165047        1.99166181
 C           -1.32229063        2.14401605        2.11376862
 C            0.53789120        3.18796540        0.96966755
 C            2.56371777        1.82348209        0.90349767
 C            1.78452535        2.82292582        0.33212883
 C            3.87270011       -0.22329970        0.47861551
 C            3.42126512        1.09969691        0.07548845
 C            2.57117457       -2.12941689       -0.35243758
 C            3.51074356       -1.12708794       -0.59462094
 C            1.67915496       -2.48405754       -1.36896318
 C            0.12569114       -3.35012775        0.24006101
 C           -1.15221779       -3.03306838        0.85297871
 C            0.38254206       -2.87965002       -1.03518488
 C           -2.97022279       -1.48314556        0.89230120
 C           -2.06501056       -2.24107623        0.16009056
 C           -3.58886160        0.75728345        1.24978193
 C           -3.60103736       -0.32971300        0.27783395
 C           -2.21966060        2.77947273        1.25344957
 C           -3.40217650        2.05823596        0.80842235
 C           -0.35864888        3.66597642       -0.06445790
 C           -1.72498040        3.56327332        0.13249365
 C            1.55636577        2.80827015       -1.10727158
 C            0.21103957        3.28416804       -1.35048111
 C            3.14769138        1.04715990       -1.35435930
 C            3.39667297       -0.31694218       -1.79318827
 C            2.05874158        1.75597596       -1.86125237
 C            1.93969146       -2.05418229       -2.66975626
 C            2.67389126       -0.81546272       -2.85976899
 C            0.86178919       -2.05798796       -3.64520516
 C           -0.68915375       -2.44961922       -1.81166881
 C           -1.82975426       -1.93180706       -1.18495218
 C           -0.49171654       -2.27116500       -3.17354849
 C           -3.36000099       -0.05716325       -1.06412112
 C           -2.61106771       -0.95664998       -1.82582256
 C           -3.59399556        2.34242778       -0.59963424
 C           -2.57352558        3.29264949       -1.01183263
 C           -3.56468416        1.23812439       -1.54155005
 C           -0.58004356        2.64361495       -2.29866249
 C           -1.96763909        2.78137649       -2.23024033
 C           -2.81454194        1.69751584       -2.69641916
 C            1.29135694        1.20730629       -2.89610936
 C            1.78249608        0.08256604       -3.56490094
 C            0.88617731       -0.76820469       -4.31870661
 C           -0.02650674        1.65107103       -3.11562171
 C           -1.34202124       -1.35112303       -3.89383830
 C           -2.37563250       -0.64494700       -3.16357420
 C           -2.26223982        0.75232176       -3.53858683
 C           -0.47997331       -0.34390421       -4.49801592
 C           -0.88665686        0.93324874       -3.95202047
