   70
C70 / DATE: 7/ 1/2024 / Origin: Program Fullerene / C70 from database
 C            1.46311088       -0.01515600        4.19832142
 C            2.68608315       -0.18550162        3.42924965
 C            2.61171508       -1.47460817        2.76662426
 C            0.61855846       -1.17525640        3.96393996
 C            1.35200838       -2.10258704        3.13248422
 C           -0.66563669       -0.70906964        3.49226773
 C            0.65380369        1.17496910        3.99335271
 C           -0.65833400        0.74180020        3.54632936
 C            1.23271874        2.29238474        3.41048795
 C            3.20520025        0.89906607        2.73726954
 C            2.60280831        2.20688984        2.93023974
 C            3.50831252        0.75349362        1.32115383
 C            3.05022945       -1.60905727        1.45281157
 C            3.25555176       -0.45499302        0.68579267
 C            2.71254797       -2.79259472        0.80543576
 C            0.67381763       -2.81624520        2.14984018
 C            1.45694906       -3.42837246        1.17277665
 C           -1.24096751       -1.32902815        2.38667055
 C           -0.65667554       -2.48512966        1.85257523
 C           -2.18853862       -0.62135939        1.63939411
 C           -1.31710659        1.43341892        2.53875455
 C           -2.30597022        0.76382539        1.82843341
 C            0.47262508        3.06248992        2.43988583
 C           -0.77374336        2.60942983        2.00566969
 C            2.67751867        2.91930453        1.66860790
 C            3.13570841        1.98764102        0.65170703
 C            1.41009535        3.59299907        1.46301214
 C            2.45137276        1.93336487       -0.56206199
 C            2.88442617       -0.43626850       -0.66064420
 C            2.27924360        0.70110509       -1.20162640
 C            2.84046771       -2.86547203       -0.63441794
 C            2.87548531       -1.62227226       -1.37450601
 C            0.84497827       -3.95246997       -0.03564820
 C            1.73353586       -3.65915512       -1.14212663
 C           -1.30275448       -3.13975920        0.80889780
 C           -0.52061693       -3.80822873       -0.21758235
 C           -2.88657758       -1.27056731        0.61223913
 C           -2.43009095       -2.50005291        0.15571952
 C           -3.72118024       -0.54668914       -0.23184879
 C           -3.12499551        1.51887999        1.00622517
 C           -3.95323024        0.85621571        0.02628145
 C           -1.30996449        3.13890928        0.82545347
 C           -2.55995701        2.70428846        0.39398582
 C            0.97220277        3.76000210        0.16003689
 C            1.62362617        2.99864025       -0.89695937
 C           -0.45370431        3.71542252       -0.10826223
 C            0.66682080        2.84543402       -1.97005537
 C           -0.60861906        3.37948687       -1.51304212
 C            1.44466936        0.59199478       -2.33055804
 C            0.66572785        1.68981886       -2.73527384
 C            1.97616960       -1.75808555       -2.49883069
 C            1.20154566       -2.97594099       -2.30425877
 C            1.32337205       -0.63919971       -2.99952256
 C           -1.03922683       -3.39358777       -1.51628404
 C           -2.30323348       -2.71194447       -1.27902972
 C           -0.17552196       -2.92950197       -2.51160922
 C           -3.58474509       -0.72177856       -1.66959710
 C           -2.72506622       -1.71221299       -2.15165696
 C           -3.81798908        1.57513271       -1.22950204
 C           -2.83419302        2.62635753       -1.03481441
 C           -1.78646243        2.77404719       -1.94442220
 C           -3.60653374        0.60192416       -2.28125088
 C           -0.44438060        1.49101898       -3.54773085
 C           -1.73739338        1.97396458       -3.08898593
 C           -2.70468424        0.90103217       -3.28803530
 C            0.20408879       -0.88520542       -3.78706143
 C           -0.65033691       -2.00884479       -3.43971595
 C           -2.00790396       -1.49965601       -3.32693078
 C           -0.64562548        0.21133615       -4.18178669
 C           -2.02513579       -0.19023637       -3.95628790
