   70
C70 / DATE: 7/ 1/2024 / Origin: Program Fullerene / C70 from database
 C            1.20478480        0.03554017        4.27888353
 C            2.50941824       -0.31819066        3.76941601
 C            2.46722093       -1.71999300        3.38485841
 C            0.37596637       -1.15812212        4.21066984
 C            1.07544696       -2.13049195        3.40425752
 C           -0.93212064       -0.74149479        3.78051415
 C            0.46757162        1.10493381        3.62822328
 C           -0.92001319        0.70691531        3.65623859
 C            0.96666315        1.68263018        2.46691124
 C            3.02791008        0.41868862        2.63946172
 C            2.30900518        1.48646595        2.10662955
 C            3.21129024       -1.86526340        2.14772201
 C            3.63033454       -0.53811979        1.72504139
 C            2.72457932       -2.73974355        1.19335670
 C            0.49301989       -2.59341282        2.22230519
 C            1.32970481       -3.16213831        1.26699005
 C           -1.57957263       -1.46209280        2.78673130
 C           -0.80099065       -2.17700285        1.86014766
 C           -2.79297714       -0.92987198        2.38113038
 C           -1.81043693        1.26305798        2.74883291
 C           -2.95236757        0.50917566        2.50613885
 C            0.06968652        2.26902164        1.56269280
 C           -1.31994478        2.08786644        1.72221818
 C            0.56991854        3.00513870        0.48282621
 C            2.76693127        2.00003525        0.90385261
 C            1.88954294        2.81484132        0.09276327
 C            3.67242622       -0.21804863        0.36736302
 C            3.51590193        1.12294984        0.01583398
 C            3.02121725       -2.48084621       -0.19958859
 C            3.46041592       -1.21547754       -0.59333064
 C            0.85566668       -3.34373683       -0.08912881
 C            1.99433166       -3.15632208       -0.97315659
 C           -1.23503984       -2.30319237        0.52400051
 C           -0.38008483       -2.82912626       -0.45592300
 C           -3.35091404       -1.30887190        1.10539606
 C           -2.53023683       -1.91363785        0.16471547
 C           -3.88302691        0.94122023        1.49497436
 C           -4.22456024       -0.22169237        0.69104545
 C           -2.20743823        2.56925118        0.74452740
 C           -3.46848455        1.98993674        0.59461334
 C           -0.30288409        3.50812278       -0.47359679
 C           -1.72902993        3.35908818       -0.29266678
 C           -0.00223160        3.26941267       -1.87871578
 C            2.16391501        2.51384756       -1.30281044
 C            3.19602613        1.49256631       -1.35163004
 C            1.09215485        2.47210702       -2.18836990
 C            3.38059240       -0.87082216       -1.94239042
 C            3.12756373        0.50874173       -2.32109137
 C            1.77039941       -2.75575096       -2.28001163
 C            2.61245818       -1.71408149       -2.84245741
 C           -0.65028256       -2.62744127       -1.81345989
 C            0.40795132       -2.50209385       -2.71320443
 C           -2.86446666       -1.79613218       -1.18094980
 C           -1.86830855       -2.08031839       -2.18993136
 C           -4.22275964        0.19039375       -0.70106744
 C           -3.92916427        1.61572998       -0.73297347
 C           -3.63848766       -0.64904265       -1.63848244
 C           -2.32521001        3.22412915       -1.61373562
 C           -1.24965412        3.05578151       -2.57538680
 C           -3.29312474        2.16619335       -1.83800278
 C           -1.86252051       -0.97312332       -3.13245174
 C           -2.95394489       -0.08026695       -2.78897594
 C           -1.44538433        1.79259214       -3.25256323
 C           -2.75709043        1.29155531       -2.87267617
 C            0.91777597        1.34309996       -3.00048903
 C            2.01201832        0.51862602       -3.25289339
 C            1.77707415       -0.84900986       -3.66088566
 C            0.42376087       -1.35455565       -3.60724784
 C           -0.37331023        0.90699951       -3.34659504
 C           -0.63458221       -0.45712715       -3.53444271
