   70
C70 / DATE: 7/ 1/2024 / Origin: Program Fullerene / C70 from database
 C            1.08978864        0.03411007        5.37274222
 C            0.37410199       -1.14158899        4.90808426
 C            1.31751307       -2.00219610        4.23448854
 C            2.42951122       -0.01709811        4.81306710
 C            2.56700137       -1.27017226        4.09700932
 C            2.64727476        1.21866249        4.09361739
 C            0.42499310        1.20672542        4.82367468
 C            1.41862510        2.00236065        4.14987527
 C           -0.77961019       -0.68973590        4.16021070
 C           -0.71515542        0.75508356        4.05754288
 C           -1.17969509       -1.38164518        3.02372822
 C            0.96050350       -2.50443291        2.92094308
 C           -0.32735352       -2.31922720        2.42955837
 C            2.90747071       -1.25379095        2.68143667
 C            2.06531452       -2.23411553        2.02382192
 C            3.04895095        1.16770751        2.70019630
 C            3.16445445       -0.05305743        2.02310832
 C            1.13781412        2.46388035        2.79986856
 C            2.34774079        2.25377016        2.04031386
 C           -1.00382218        1.32507539        2.81625368
 C           -0.07882436        2.16787559        2.18075517
 C           -2.06955871       -0.72667964        2.18414625
 C           -1.92318216        0.65526394        2.02072261
 C           -2.62509176       -1.45296826        1.14021803
 C           -0.53684747       -2.59683475        1.08126150
 C           -1.82769555       -2.45767068        0.58135246
 C            1.78104514       -2.06633630        0.67288169
 C            0.53987309       -2.47682072        0.19171244
 C            3.06639786       -0.02480052        0.63111505
 C            2.48458986       -1.10654581       -0.04801663
 C            2.24147697        2.18884569        0.66624713
 C            3.01008233        1.22792574        0.03227819
 C           -0.15581559        2.33324018        0.78601909
 C            1.02908551        2.53519877        0.06796625
 C           -2.28486532        1.22293568        0.80678647
 C           -1.31695172        1.94444644        0.10596414
 C           -3.55600207       -0.78618853        0.35352323
 C           -3.33149471        0.62697068        0.12109857
 C           -4.01684284       -1.38372198       -0.87988016
 C           -2.05432483       -2.89262450       -0.71966898
 C           -3.25876328       -2.48862361       -1.41782729
 C            0.28470768       -2.38092658       -1.17831724
 C           -0.94404070       -2.83030779       -1.65195937
 C            2.24279470       -0.98017403       -1.42019195
 C            1.06124800       -1.51847808       -1.96264083
 C            3.07429228        1.29406587       -1.34233885
 C            2.89086469        0.06085682       -2.07465759
 C            1.00236550        2.56435062       -1.32666214
 C            2.19482711        2.24356399       -1.98280680
 C           -1.35236349        1.99187101       -1.29683059
 C           -0.21538643        2.42007741       -2.00083737
 C           -3.49027791        0.87153408       -1.29314322
 C           -4.05774232       -0.33385616       -1.88274085
 C           -2.49535614        1.54798012       -1.98701800
 C           -2.89059549       -2.15582213       -2.78205281
 C           -1.45133097       -2.33850977       -2.91787812
 C           -3.46463424       -0.85705122       -3.10045684
 C            0.59129194       -1.10213256       -3.22504768
 C           -0.72356185       -1.38573854       -3.61698783
 C            2.48651719        0.43717840       -3.41149246
 C            2.18130109        1.86387542       -3.37659000
 C            1.34652993       -0.22167854       -4.00038428
 C           -0.22547347        2.45731668       -3.39859971
 C            0.96715990        2.06741715       -4.12511459
 C            0.66379392        0.80216355       -4.76800145
 C           -2.44319202        1.34268596       -3.36218864
 C           -2.71274666        0.00954630       -3.87685353
 C           -1.43707848       -0.45607548       -4.37720503
 C           -1.32233914        1.85262475       -4.11700859
 C           -0.77328687        0.73044033       -4.87219020
