   70
C70 / DATE: 7/ 1/2024 / Origin: Program Fullerene / C70 from database
 C            1.25965121        0.19614988        4.86087771
 C            2.49107835        0.04719658        4.11315979
 C            2.55073977       -1.32903178        3.66178749
 C            0.44714609       -0.98768857        4.61091762
 C            1.20986541       -1.87801948        3.76133833
 C           -0.85183927       -0.54408627        4.15604690
 C            0.43550907        1.35665269        4.59908101
 C           -0.92017518        0.89042545        4.35767508
 C            0.77890642        2.22714761        3.48970437
 C            2.72112855        0.89043497        2.95001104
 C            1.78546767        1.85618204        2.59176916
 C            3.19279210       -1.33437260        2.36271874
 C            3.28999273        0.04954241        1.91447848
 C            2.78042457       -2.28818532        1.44592591
 C            0.62262599       -2.40552551        2.61197411
 C            1.46561925       -2.89250197        1.61710386
 C           -1.37070026       -1.05726761        2.97616057
 C           -0.69586863       -2.06908540        2.27978063
 C           -2.32413932       -0.30131912        2.30248086
 C           -1.47906115        1.71062431        3.29063494
 C           -0.48303311        2.71818952        2.96877739
 C           -2.16446080        1.08307782        2.24903866
 C           -0.49440895        3.26637437        1.70128713
 C            1.68672446        2.25136590        1.25560609
 C            0.72305447        3.19268696        0.91563505
 C            3.02704969        0.34044695        0.57770189
 C            2.28090319        1.48118817        0.24618197
 C            2.92828758       -1.99301915        0.03623756
 C            3.17015543       -0.68205948       -0.36084535
 C            0.93103004       -3.17270760        0.29584619
 C            1.92395383       -2.76141613       -0.67828738
 C           -1.24964693       -2.53125664        1.08019102
 C           -0.40538799       -2.91870431        0.03122557
 C           -3.06783527       -0.92561336        1.31822927
 C           -2.57052983       -2.18614977        0.80333842
 C           -3.48719155       -0.14074784        0.17597494
 C           -2.28209180        1.73714277        1.01565718
 C           -1.57976007        2.91407073        0.80389358
 C           -2.83028463        1.05923495       -0.07762457
 C            0.33158565        3.34073026       -0.46747298
 C           -1.11813141        3.21536109       -0.52923577
 C            2.04776902        1.78378669       -1.10523216
 C            1.08310426        2.73608994       -1.46508490
 C            3.01858168       -0.38290607       -1.70505461
 C            2.59163091        0.94941651       -2.08052501
 C            1.50264628       -2.29602614       -1.91792902
 C            2.27969023       -1.31839848       -2.53656332
 C           -0.79831135       -2.73575004       -1.29832350
 C            0.15749933       -2.42601658       -2.27575314
 C           -3.08182175       -2.32798802       -0.54441766
 C           -3.72900256       -1.07158182       -0.89975947
 C           -2.15119111       -2.64524679       -1.60508690
 C           -3.28713584       -0.71963866       -2.22625443
 C           -2.56415713       -1.86604621       -2.75368622
 C           -2.44655005        1.39841243       -1.39298219
 C           -1.66388172        2.54694516       -1.61566789
 C           -2.79058612        0.55689954       -2.47368660
 C            0.49639776        2.68632257       -2.72957863
 C           -0.95559490        2.66999075       -2.80315259
 C            1.95883949        0.84274388       -3.38459963
 C            1.74538878       -0.57522977       -3.66142989
 C            0.99818139        1.77613003       -3.74069070
 C           -0.25346658       -1.98153368       -3.53540418
 C           -1.65154448       -1.65128427       -3.77205394
 C            0.55987361       -1.00502001       -4.24322410
 C           -2.23759748        0.77223869       -3.73551427
 C           -1.34145507        1.88378584       -3.94617716
 C           -0.12772552        1.37522111       -4.56847439
 C           -1.68729101       -0.36793320       -4.45051425
 C           -0.33143546       -0.03285093       -4.84816174
