   70
C70 / DATE: 7/ 1/2024 / Origin: Program Fullerene / C70 from database
 C            1.63910433       -0.17290075        4.51099067
 C            0.80732502       -1.33959404        4.27598642
 C            1.51892606       -2.21181969        3.36404471
 C            2.70258436       -0.19016632        3.52594311
 C            2.68870824       -1.49076253        2.87955291
 C            2.56457157        0.98836442        2.68749358
 C            0.82786209        1.00064562        4.25547362
 C            1.43611969        1.75602728        3.17459228
 C           -0.51920851       -0.87785567        3.90133261
 C           -0.54349095        0.56478540        4.07500870
 C           -1.14668033       -1.43436985        2.78344463
 C            0.77714669       -2.95176931        2.45650469
 C           -0.61434035       -2.58882886        2.21073274
 C            1.37279258       -3.28184075        1.17484461
 C            2.99656377       -1.55001142        1.52322283
 C            2.54483197       -2.64461008        0.78021140
 C            2.72989040        0.82979945        1.32058916
 C            3.29699237       -0.35409932        0.86168940
 C            1.98794088        1.61365150        0.43271368
 C            0.57880005        2.35468447        2.25966646
 C            0.91680399        2.38044267        0.90163476
 C           -1.33584803        1.30250100        3.21249451
 C           -0.76734632        2.42026976        2.60263385
 C           -2.06300068       -0.65783841        2.06182561
 C           -2.33750610        0.63053629        2.52256793
 C           -2.39396964       -1.00307798        0.74201563
 C           -0.91103557       -2.89837198        0.82559382
 C            0.29552148       -3.42172064        0.21026749
 C           -1.70900517       -2.03616938        0.09430328
 C            0.55678039       -3.13462487       -1.12636377
 C            2.91440799       -2.74210689       -0.55622884
 C            1.88931348       -3.07083169       -1.53652067
 C            3.72434336       -0.40059874       -0.45385666
 C            3.73052487       -1.68552962       -1.11982976
 C            2.16517590        1.43092477       -0.94213008
 C            3.18182106        0.57859224       -1.38035589
 C            1.17281439        1.85203001       -1.83324553
 C           -0.00849527        2.90021705       -0.00845578
 C            0.02188325        2.47402587       -1.34253454
 C           -1.59254960        3.21811772        1.82862793
 C           -1.13674642        3.55150239        0.49030086
 C           -3.28080482        1.40529993        1.86438100
 C           -2.98181366        2.81869205        1.71761893
 C           -3.29635957       -0.21403354        0.01827955
 C           -3.81912550        0.93885870        0.60064978
 C           -3.36628464       -0.34756766       -1.37072636
 C           -1.59551294       -2.03489135       -1.29310321
 C           -0.43329390       -2.52399966       -1.90175097
 C           -2.52336019       -1.32432973       -2.04145428
 C           -0.15396578       -2.19335668       -3.22826877
 C            2.23920583       -2.40937643       -2.78394960
 C            3.31926334       -1.47933575       -2.49537407
 C            3.09347222       -0.05482588       -2.68473924
 C            1.22658899       -2.00169368       -3.63848738
 C            1.18144123        1.39771334       -3.15286460
 C            2.09804654        0.34536400       -3.55968102
 C            1.31806553       -0.67906347       -4.23566657
 C           -2.12332644       -0.74827637       -3.31282161
 C           -0.94988721       -1.18247222       -3.90556205
 C           -0.08614185        1.15504139       -3.81631765
 C           -0.03066289       -0.17388570       -4.40063013
 C           -1.15152771        2.44868524       -2.11570441
 C           -3.39150503        0.84979156       -2.20512623
 C           -1.24795180        1.53927245       -3.16489602
 C           -2.34663566        0.68098598       -3.19628863
 C           -2.30984863        3.67955935       -0.34919008
 C           -3.46494900        3.25924366        0.42630354
 C           -4.03788249        2.10561613       -0.23941544
 C           -2.33906739        2.95288318       -1.59742178
 C           -3.50650387        2.08248208       -1.58457505
