   70
C70 / DATE: 7/ 1/2024 / Origin: Program Fullerene / C70 from database
 C            1.57515672       -0.31385229        5.05460854
 C            0.71920778       -1.48093369        4.99058370
 C            1.21487516       -2.32772818        3.92165458
 C            2.58864917       -0.45151330        4.02131877
 C            2.29551284       -1.63466024        3.24716316
 C            2.64643982        0.80154203        3.31668680
 C            0.76840324        0.84581696        4.71302011
 C            1.50862257        1.60763581        3.73846471
 C           -0.60873611       -1.03698215        4.60096625
 C           -0.54992856        0.38848318        4.34100999
 C            0.07385475       -2.71772682        3.12666493
 C           -1.05968599       -1.90210167        3.52482665
 C            0.25288902       -2.89637928        1.76935815
 C            2.24471753       -1.53315958        1.85535783
 C            1.41459374       -2.40811918        1.15758232
 C            2.93946512        0.79691009        1.96065980
 C            2.69779048       -0.37132357        1.21197030
 C            2.76646763        2.01880025        1.33629391
 C            0.81519080        2.29000877        2.74358171
 C            1.60606738        2.80311150        1.72697788
 C           -1.10755534        0.84932475        3.15341261
 C           -0.49365185        1.88657855        2.42916174
 C           -1.83879174       -1.34871542        2.50653108
 C           -2.03616133        0.03423575        2.51009219
 C           -0.89530955       -2.95517707        1.00002835
 C           -1.90577527       -2.03259387        1.28378122
 C           -0.74173104       -3.43258700       -0.28501154
 C            1.48025419       -2.44432183       -0.23368058
 C            0.57323395       -3.28573275       -0.87562069
 C            2.59699559       -0.28637521       -0.19065740
 C            2.00373729       -1.33606485       -0.91857494
 C            2.88132648        2.09859793       -0.09432925
 C            2.90636105        0.92254668       -0.83026034
 C            0.98885177        3.28522797        0.51244602
 C            2.00345661        3.17587418       -0.51715891
 C           -1.08722633        2.30591725        1.22559005
 C           -0.31352593        2.90143038        0.22195358
 C           -2.81304337        0.59633659        1.51471185
 C           -2.35957926        1.83779020        0.91393938
 C           -2.66766278       -1.48710684        0.24144830
 C           -3.28498908       -0.25528677        0.44230606
 C           -1.71251532       -3.07735506       -1.29350885
 C           -2.57277661       -2.01192516       -1.05383663
 C            0.39878534       -3.20066569       -2.30406931
 C           -1.03146503       -3.16990376       -2.57209886
 C            1.86405883       -1.23801343       -2.31646071
 C            1.00306546       -2.09285650       -2.99783111
 C            2.77527544        1.03427134       -2.20774104
 C            2.20317195       -0.05775254       -2.96124024
 C            1.60711294        3.20819311       -1.83976581
 C            2.24117479        2.27413948       -2.75167727
 C           -0.72401965        2.85684006       -1.11873179
 C            0.18386632        3.18570904       -2.13055441
 C           -2.81146831        1.84394890       -0.46521646
 C           -3.55227271        0.60885318       -0.68855425
 C           -1.97268951        2.33157174       -1.46185962
 C           -3.08747373       -1.29921274       -2.14175963
 C           -3.57814008        0.05694747       -1.95766040
 C           -1.27943277       -2.14678673       -3.56718424
 C           -0.00113669       -1.51909430       -3.88089805
 C           -2.41046784       -1.35746625       -3.43270949
 C            1.27523353        0.49917303       -3.93911529
 C            1.27570402        1.94044290       -3.78141675
 C            0.02820320        2.60187270       -3.45208756
 C            0.06846571       -0.15670768       -4.17276034
 C           -2.23955684        1.99380233       -2.78893519
 C           -3.09929923        0.85718088       -3.06882959
 C           -2.38849011       -0.02001409       -3.98567886
 C           -1.15531539        1.95193383       -3.75303812
 C           -1.10636486        0.59514667       -4.28363898
