   70
C70 / DATE: 7/ 1/2024 / Origin: Program Fullerene / C70 from database
 C            1.40746709        0.01837066        4.94817462
 C            0.62075686       -1.14553139        4.58205498
 C            1.49637882       -2.05602109        3.88378656
 C            2.66252956       -0.05261330        4.21676747
 C            2.73904675       -1.35214760        3.59467877
 C            2.74047191        1.11552886        3.36765956
 C            0.69395551        1.19692708        4.48650419
 C            1.59108440        1.95940018        3.65486391
 C           -0.57368423       -0.68220093        3.89962416
 C           -0.55131456        0.76957326        3.89979526
 C           -1.01268210       -1.32864427        2.74200754
 C            1.03099291       -2.62483184        2.63788192
 C           -0.26664890       -2.38299175        2.19657815
 C            2.95499654       -1.42478502        2.15926118
 C            2.10012372       -2.48892601        1.67227225
 C            3.14259158        0.99393086        2.03640577
 C            3.06281702       -0.25698207        1.39897190
 C            3.02820818        2.14672515        1.26921794
 C            1.06988924        2.69308466        2.59668775
 C            2.00214452        3.10196645        1.65477649
 C           -1.00435823        1.41445965        2.75859245
 C           -0.25263650        2.45036449        2.17399860
 C           -1.90731437       -0.64373910        1.91083068
 C           -1.94876242        0.75199537        1.98667748
 C           -2.42967353       -1.30042947        0.78956799
 C           -0.56660517       -2.78118077        0.90018005
 C           -1.82981485       -2.50383081        0.40497341
 C            1.74651877       -2.48648919        0.33346199
 C            0.48081317       -2.95560827       -0.00956381
 C            2.77661821       -0.33811751        0.02649581
 C            2.34892631       -1.55953668       -0.50766066
 C            2.99240941        2.04711102       -0.17338702
 C            2.71408726        0.82047745       -0.75515781
 C            1.55148945        3.77660943        0.46467522
 C            2.28741709        3.21477130       -0.65589483
 C           -0.72995026        3.04497634        0.98908798
 C            0.14410257        3.72062148        0.14068097
 C           -2.61556093        1.47763857        1.02084771
 C           -1.96125314        2.64782416        0.46970499
 C           -3.26277271       -0.60318551       -0.10055696
 C           -3.29128314        0.78372793       -0.05282882
 C           -3.66335936       -1.20219146       -1.29104353
 C           -2.19247395       -3.12056472       -0.78246903
 C           -3.29078281       -2.57483894       -1.54245072
 C            0.17881798       -3.13041685       -1.36064735
 C           -1.12894063       -3.46440945       -1.71000298
 C            2.08728339       -1.65996134       -1.86876041
 C            1.01964460       -2.54674263       -2.31207461
 C            2.12281089        0.77875978       -2.02331552
 C            2.01678472       -0.44991751       -2.66549072
 C            1.35291482        3.04272487       -1.74506252
 C            0.04892934        3.50639216       -1.29416566
 C            1.40551284        1.88393222       -2.50693308
 C           -2.15898950        2.62502205       -0.97518086
 C           -3.06718435        1.52839870       -1.28022134
 C           -1.09050893        2.90365455       -1.82372217
 C           -3.49199390       -0.45840076       -2.53229431
 C           -2.94398600        0.82237054       -2.47297904
 C           -2.97231821       -2.70988427       -2.95325096
 C           -1.60289148       -3.18276095       -3.05316768
 C           -3.02542924       -1.38658618       -3.54674270
 C            0.46617736       -1.98901009       -3.53896777
 C            1.01093225       -0.65034771       -3.69703147
 C           -0.86065202       -2.24058247       -3.86713416
 C           -1.75010645       -1.13001649       -4.18472331
 C            0.34842255        1.68194285       -3.38583657
 C           -0.96263840        2.19210376       -3.01526637
 C           -1.94836911        1.18638838       -3.38096526
 C            0.17026913        0.39848012       -4.03529021
 C           -1.25939732        0.16817009       -4.16750547
