   70
C70 / DATE: 7/ 1/2024 / Origin: Program Fullerene / C70 from database
 C            1.49746687       -0.00822269        4.63560912
 C            0.72509485       -1.20790572        4.38117142
 C            1.35867637       -1.93824951        3.29667134
 C            2.62186829       -0.00617933        3.71806853
 C            2.53503126       -1.18534488        2.89156363
 C            2.63590316        1.27163044        3.05218088
 C            0.65508691        1.12899307        4.30071111
 C            1.37311710        1.93506870        3.34606870
 C           -0.65281669       -0.80259974        4.20996164
 C           -0.64399841        0.62359057        3.92106449
 C           -1.45934027       -1.60711739        3.42989621
 C            0.54681154       -2.50805415        2.31189315
 C           -0.82912222       -2.57856492        2.54139967
 C            1.02893139       -2.59847041        0.99982492
 C            2.79547819       -1.06652432        1.53601180
 C            2.27603682       -2.03925012        0.69888735
 C            3.09729467        1.34486898        1.74377954
 C            3.20228088        0.16117666        0.98550407
 C            2.80004738        2.52958337        1.08810496
 C            0.68507131        2.51028132        2.28292731
 C            1.48270905        3.10282101        1.31083903
 C           -1.24111519        1.07761586        2.74176523
 C           -0.56997470        1.99099554        1.91253368
 C           -2.49588419       -0.97055251        2.64933306
 C           -2.31425406        0.34747954        2.22637582
 C           -1.73513398       -2.77236119        1.41936068
 C           -2.91322124       -1.96235544        1.68300542
 C            0.15885553       -2.96775009       -0.03567326
 C           -1.21420009       -2.81440759        0.13116277
 C            0.65127358       -3.15012510       -1.32160854
 C            2.79046953       -2.12855531       -0.58064366
 C            2.03845834       -2.83742606       -1.59255779
 C            3.44518353        0.23061789       -0.40123730
 C            3.33821535       -0.92512274       -1.17668574
 C            3.11689432        2.65977485       -0.31117111
 C            3.39881487        1.45734388       -1.06072356
 C            0.92424686        3.41824050        0.01660804
 C            1.99981990        3.33392332       -0.95031378
 C           -1.09354408        2.26432712        0.64095898
 C           -0.30772149        2.89311692       -0.32984290
 C           -2.94444269        0.76328678        1.05250931
 C           -2.35054820        1.77127277        0.28154226
 C           -3.67002775       -1.53069652        0.61348774
 C           -3.88063338       -0.10399508        0.47967759
 C           -2.00461384       -2.40403818       -0.94886165
 C           -3.31413105       -1.99499931       -0.71211320
 C           -0.14161548       -2.67507720       -2.44194419
 C           -1.41010505       -2.15378566       -2.19146203
 C            2.09500605       -2.05990665       -2.81706459
 C            2.80704080       -0.82638920       -2.53021131
 C            0.75369986       -1.98634480       -3.35917802
 C            2.68404779        1.55744366       -2.32387992
 C            1.73733515        2.65816643       -2.20464773
 C            2.29027302        0.38975581       -2.97445764
 C           -0.60849032        2.72178756       -1.68093004
 C            0.42008558        2.44452466       -2.59017962
 C           -2.85599361        2.09236425       -0.98160760
 C           -1.92649484        2.46485837       -2.03349677
 C           -4.33938855        0.10135477       -0.87753261
 C           -3.94475175       -1.07847545       -1.63949822
 C           -3.87792412        1.26620533       -1.59162751
 C           -1.92824108       -1.16101267       -3.03590702
 C           -2.20503212        1.62758818       -3.19129697
 C           -3.19064473       -0.62667355       -2.78856565
 C           -3.36285581        0.81360138       -2.87164658
 C            0.33690864       -0.80027413       -3.93720024
 C            1.12794481        0.41087807       -3.75123726
 C            0.19935999        1.52141804       -3.60397704
 C           -1.06358349       -0.43090293       -3.84954065
 C           -1.14099507        1.02175491       -3.84193769
