   70
C70 / DATE: 7/ 1/2024 / Origin: Program Fullerene / C70 from database
 C            1.60256573        0.12366276        4.97885700
 C            0.79959542       -1.08682557        5.01587919
 C            1.53049898       -2.11861338        4.30630870
 C            2.68011385       -0.08965920        4.02860582
 C            2.69051165       -1.49398331        3.68797331
 C            2.53079762        0.88101441        2.95724529
 C            0.76937483        1.19063598        4.45822196
 C            1.44128730        1.77066536        3.30712095
 C           -0.54354352       -0.75008260        4.57382998
 C           -0.57068615        0.66901212        4.26093588
 C           -1.23071662       -1.63115477        3.74951358
 C            0.84225115       -2.88559007        3.28071228
 C           -0.53219451       -2.75732244        3.13851935
 C            2.68277906       -1.85613761        2.28737357
 C            1.67153618       -2.87406150        2.08718856
 C            2.63784320        0.47681866        1.62928573
 C            2.81290974       -0.87641981        1.31131683
 C            2.14955487        1.33606731        0.63907023
 C            0.64488868        2.25860967        2.27643131
 C            1.14762526        2.25307566        0.97032178
 C           -1.26485331        1.11417465        3.14040195
 C           -0.73529854        2.20015836        2.44751966
 C           -2.15257133       -1.09740340        2.76085903
 C           -2.14083708        0.25626586        2.46363018
 C           -1.11697235       -2.97358027        1.82915510
 C           -2.22304336       -2.04226770        1.66782114
 C            1.07390354       -2.95521887        0.82935629
 C           -0.29549447       -3.22393630        0.73313382
 C            2.57824577       -1.26145939        0.00148290
 C            1.72101778       -2.33891688       -0.24718033
 C            2.35088965        0.99641567       -0.69592687
 C            2.74483147       -0.31013576       -0.98656206
 C            1.78293309        1.78652687       -1.69545057
 C            0.37056622        2.83265694       -0.04117655
 C            0.66758434        2.57701012       -1.39048175
 C           -1.52970191        2.80071715        1.49053925
 C           -0.88001923        3.33787549        0.31392002
 C           -2.67993803        0.67919600        1.24880782
 C           -2.66952553        2.04732627        1.01111096
 C           -2.51793039       -1.58705884        0.38547082
 C           -2.73654517       -0.21921849        0.16530426
 C           -0.89531253       -3.18003111       -0.51952750
 C           -2.10422332       -2.38466421       -0.67404220
 C            1.23488578       -2.53588286       -1.54320631
 C           -0.07705750       -2.96351123       -1.69940598
 C            2.72628561       -0.75584406       -2.29529153
 C            1.84888758       -1.86945131       -2.60341718
 C            2.13075823        1.53601180       -3.02022353
 C            2.61803208        0.21619160       -3.36057983
 C            1.23215627        1.93666412       -4.07803959
 C           -0.25259850        2.93259334       -2.39773902
 C           -0.02421336        2.54967121       -3.71561777
 C           -1.91492005        3.45718433       -0.68560425
 C           -2.98961999        2.55057848       -0.30245787
 C           -1.57946415        3.16325120       -2.05443221
 C           -2.88410612        0.25762471       -1.15257278
 C           -3.15459841        1.60483262       -1.38150067
 C           -2.59038890        2.24570069       -2.55212023
 C           -2.11859910       -1.85582646       -2.01956253
 C           -0.92116584       -2.32734514       -2.69865542
 C           -2.54914068       -0.55681583       -2.24262217
 C            1.05310231       -1.47689894       -3.75756591
 C            1.72540072       -0.33686440       -4.36326590
 C            0.93739714        0.75786232       -4.88469635
 C           -0.34102997       -1.52282455       -3.67442313
 C           -1.07982445        1.82449307       -4.40387381
 C           -2.26579812        1.46173990       -3.64497674
 C           -2.24855290        0.01603289       -3.47961165
 C           -0.50013676        0.60558887       -4.93420997
 C           -1.12038898       -0.50890023       -4.23720432
