   70
C70 / DATE: 7/ 1/2024 / Origin: Program Fullerene / C70 from database
 C            1.61177568       -0.00722914        4.54211244
 C            0.79307581       -1.19957203        4.45009090
 C            1.29321939       -2.01802209        3.35557692
 C            2.61583446       -0.08473380        3.49935031
 C            2.41294624       -1.31093857        2.75751910
 C            2.57474586        1.15710149        2.76288783
 C            0.75911423        1.13174953        4.24331779
 C            1.38555458        1.88271619        3.17281366
 C           -0.59168594       -0.77313349        4.40069468
 C           -0.58478244        0.63518498        4.03145547
 C           -1.48735387       -1.61103750        3.76189172
 C            0.36010506       -2.64888175        2.53127306
 C           -0.94980795       -2.72649103        3.00091147
 C            0.60964957       -2.73731151        1.15093389
 C            2.50360636       -1.26451935        1.37512149
 C            1.79556350       -2.20164995        0.63568201
 C            2.85271948        1.13039484        1.40689965
 C            2.96274336       -0.09969244        0.74565215
 C            2.44799819        2.22662893        0.66706694
 C            0.58612068        2.42879504        2.16938294
 C            1.20958291        2.80412180        0.97476704
 C           -1.26792519        1.04779494        2.88861087
 C           -0.78211664        2.13375405        2.15508301
 C           -2.50100532       -1.01822717        2.91342218
 C           -2.24711947        0.21883628        2.33031490
 C           -2.00205708       -3.15501134        2.11074484
 C           -3.00308254       -2.09379329        2.08499194
 C           -0.37204693       -3.23822957        0.27616508
 C           -1.66972393       -3.45498241        0.73744553
 C           -0.17365588       -3.17870601       -1.10781162
 C            2.08664269       -2.32455241       -0.71213133
 C            1.07853678       -2.84309126       -1.61275573
 C            3.14005544       -0.10170141       -0.64695140
 C            2.77286961       -1.23062182       -1.37962316
 C            2.97160123        2.34311604       -0.60585187
 C            3.26903696        1.11640223       -1.32100166
 C            2.37546885        3.27961294       -1.53029344
 C            0.45403816        3.42822445       -0.02364433
 C            1.05533024        3.78891508       -1.22756128
 C           -1.56671771        2.63715791        1.12607677
 C           -0.93548001        3.36780382        0.04233945
 C           -2.75249876        0.50191766        1.05689283
 C           -2.58958701        1.78242327        0.54729286
 C           -3.29677577       -1.82306541        0.69215928
 C           -2.77592510       -2.95363600       -0.05156777
 C           -3.09412917       -0.53975547        0.18607976
 C           -1.28374569       -3.15752650       -1.95445491
 C           -2.57942274       -2.79873924       -1.40837595
 C           -1.19112794       -2.49275001       -3.24226785
 C            1.19288503       -2.11919688       -2.87315440
 C            2.16808238       -1.06189138       -2.69279890
 C            0.05985280       -1.86593944       -3.62450435
 C            2.70996967        1.25240171       -2.65791273
 C            2.32361248        2.63951777       -2.83412114
 C            1.91260428        0.22546073       -3.16087453
 C            0.27839480        3.71886228       -2.45281547
 C            1.03415452        2.92814350       -3.41286731
 C           -1.70300550        3.10503522       -1.16573619
 C           -2.56770815        1.97256284       -0.89162829
 C           -1.07251647        3.18652034       -2.39533098
 C           -2.92658532       -0.38339516       -1.19593389
 C           -2.91781310       -1.52010602       -2.00324793
 C           -2.23229519       -1.47480881       -3.27426113
 C           -2.53476555        0.85523165       -1.72155103
 C           -0.23375177       -0.50041828       -4.02027993
 C            0.69901610        0.51449691       -3.81210038
 C            0.20040785        1.81825215       -3.81786896
 C           -1.13668750        2.04896329       -3.29594346
 C           -1.62134789       -0.23119130       -3.67658050
 C           -1.91266567        0.93644940       -2.97921699
