   70
C70 / DATE: 7/ 1/2024 / Origin: Program Fullerene / C70 from database
 C            1.54030138        0.07273308        4.65680733
 C            0.74031515       -1.13443258        4.56494948
 C            1.24959505       -1.93337190        3.46441049
 C            2.57818142       -0.01164315        3.64762107
 C            2.47708872       -1.30629641        3.00288366
 C            2.48635403        1.16531739        2.80419484
 C            0.68175183        1.19085285        4.30903452
 C            1.25113511        1.84422130        3.15289594
 C           -0.64748743       -0.73125348        4.52440764
 C           -0.67269489        0.69498371        4.21271490
 C           -1.53650445       -1.55792614        3.85754967
 C            0.34820555       -2.44048491        2.52428014
 C           -1.01248991       -2.46201259        2.83547578
 C            0.75915516       -2.57736555        1.19205188
 C            2.77449488       -1.37045939        1.65230383
 C            2.08777227       -2.29561656        0.87414811
 C            2.79758933        1.01634147        1.45382916
 C            3.27129017       -0.22415143        1.03128579
 C            2.16382882        1.84087799        0.51704331
 C            0.41836361        2.23442691        2.11742587
 C            1.01408987        2.53740661        0.90178833
 C           -1.49140131        1.14547395        3.17619772
 C           -0.95265134        1.93193435        2.14577294
 C           -2.73329223       -0.94932546        3.31694900
 C           -2.67367669        0.45316564        2.94666027
 C           -1.98562433       -2.52778293        1.76060586
 C           -3.11031007       -1.69962468        2.13568263
 C           -0.19219512       -2.66835985        0.16484904
 C           -1.54557546       -2.47157721        0.44623150
 C            0.22128674       -2.78510406       -1.16688206
 C            2.54262096       -2.51826872       -0.41708779
 C            1.57753960       -2.76226555       -1.47222209
 C            3.73479362       -0.34069382       -0.26984073
 C            3.55176827       -1.61530506       -0.94017511
 C            2.46950560        1.68330145       -0.84162854
 C            3.38928638        0.70293603       -1.21863397
 C            1.69174748        2.31224460       -1.81994713
 C            0.25395671        3.19967367       -0.04274562
 C            0.63446295        3.13279229       -1.43801855
 C           -1.74322610        2.27002670        1.03524358
 C           -1.19049573        3.08691502        0.04471640
 C           -3.34290647        0.58836296        1.67059814
 C           -3.60294174       -0.75170206        1.16071026
 C           -2.92337617        1.56179997        0.77085569
 C           -2.38665573       -1.93794336       -0.53464390
 C           -3.35551210       -0.98748225       -0.18538776
 C           -0.68912048       -2.54266739       -2.19204283
 C           -2.03306180       -2.09759916       -1.86918648
 C           -0.24853045       -1.82393656       -3.37906680
 C            2.02600821       -2.05941695       -2.66772326
 C            3.24703903       -1.35017154       -2.33274280
 C            3.29004486        0.08512477       -2.53156419
 C            1.08598108       -1.43156365       -3.48091515
 C            1.78496372        1.90011138       -3.14894074
 C            2.42797380        0.63879420       -3.46124179
 C            1.41359582       -0.20873358       -4.07308850
 C            0.61768769        1.99776321       -4.00867444
 C            0.36232977        0.67178570       -4.55317913
 C           -0.58685703        3.16179244       -2.22900282
 C           -1.71101511        3.05065389       -1.31223140
 C           -0.62325962        2.50268702       -3.45174331
 C           -3.36165982        1.42005315       -0.54505293
 C           -3.59533296        0.07685205       -1.04648928
 C           -2.76062761        2.19763691       -1.61096758
 C           -2.41888879       -1.09005181       -2.84417942
 C           -1.32180059       -0.92593729       -3.78369406
 C           -1.02020948        0.33585769       -4.28015564
 C           -1.65746179        1.51107497       -3.70481052
 C           -3.13611609        0.01929967       -2.42075684
 C           -2.69914576        1.35525205       -2.79751164
