   70
C70 / DATE: 7/ 1/2024 / Origin: Program Fullerene / C70 from database
 C            1.20032913        0.04645185        4.35812673
 C            2.48761937       -0.24286567        3.77639991
 C            2.40515093       -1.56431982        3.16822395
 C            0.35700210       -1.11737281        4.13628411
 C            1.00731570       -1.93451892        3.13972151
 C           -0.96887157       -0.63223805        3.84288223
 C            0.46424396        1.19999447        3.87911199
 C           -0.93612497        0.82096313        3.89552271
 C            0.94631587        1.94713259        2.80550351
 C            2.99876398        0.64640319        2.75598421
 C            2.15576280        1.60232355        2.18226546
 C            3.12552834       -1.49400974        1.91481968
 C            3.78240776       -0.20056000        1.88106546
 C            2.51705756       -1.94723670        0.74950764
 C            0.38013484       -2.10912682        1.90830997
 C            1.15408497       -2.28855939        0.75892207
 C           -1.69138458       -1.21936623        2.81513560
 C           -0.99908912       -1.88213271        1.78738823
 C           -2.89859957       -0.60976910        2.52356920
 C           -1.84533320        1.51818605        3.10326752
 C           -2.99081472        0.83184924        2.70374422
 C            0.05207155        2.78292915        2.14569795
 C           -1.38190388        2.58672903        2.32788564
 C            0.28292853        3.11843205        0.75253471
 C            2.41590656        2.02493142        0.87206601
 C            1.39416825        2.59665483        0.10901859
 C            4.14431683        0.30291226        0.64574895
 C            3.57337997        1.57374792        0.23698762
 C            3.13839726       -1.64070809       -0.46148184
 C            4.03376303       -0.57137995       -0.50800416
 C            2.59133296       -2.12673307       -1.64267173
 C            0.52664585       -2.64823738       -0.43107865
 C            1.28972137       -2.76212129       -1.59221042
 C           -1.62579365       -2.11714537        0.55310729
 C           -0.86744508       -2.61648224       -0.51859819
 C           -3.59831988       -0.95649653        1.31152918
 C           -2.97015656       -1.75081402        0.36264810
 C           -3.80915530        1.36037211        1.63080921
 C           -4.29861093        0.23338346        0.85806486
 C           -2.03300466        2.92769059        1.06610058
 C           -0.99571602        3.09193739        0.06631852
 C           -3.21892432        2.30740515        0.70913450
 C           -1.08838137        2.42614029       -1.15219965
 C            1.32327617        2.35105821       -1.26498607
 C            0.07748818        2.21559827       -1.88562008
 C            3.65466366        1.62155562       -1.21258260
 C            4.04394339        0.29529172       -1.67067852
 C            2.47743155        2.00782437       -1.96077223
 C            2.64213683       -1.31673672       -2.85456793
 C            3.20647470       -0.04825046       -2.80407539
 C            2.37923419        1.11175029       -3.09874970
 C            0.66436760       -2.57407332       -2.88892047
 C            1.39190693       -1.51292586       -3.56904654
 C           -1.46922397       -2.86588724       -1.75215427
 C           -0.71806503       -2.61765607       -2.96884984
 C           -3.50219956       -1.71835152       -0.92255591
 C           -2.81074479       -2.39240668       -1.99540686
 C           -4.20537246        0.58304555       -0.54601626
 C           -3.36094731        1.76476954       -0.63407040
 C           -2.26871947        1.75687888       -1.50485113
 C           -3.98155018       -0.44667284       -1.44496474
 C           -1.42453598       -1.57653802       -3.70097971
 C           -2.74701477       -1.46671568       -3.11706080
 C           -2.28043661        0.88604299       -2.60191062
 C           -3.18548756       -0.17408156       -2.62351696
 C           -0.00995466        1.62827118       -3.14212690
 C            1.13938980        0.93179154       -3.69472007
 C            0.70154864       -0.40754747       -4.05611072
 C           -1.19289502        0.85949238       -3.47184919
 C           -0.75143438       -0.40990292       -4.04001907
