   70
C70 / DATE: 7/ 1/2024 / Origin: Program Fullerene / C70 from database
 C            1.41150380       -0.01626131        4.95011575
 C            0.62097706       -1.20779046        4.70058156
 C            1.43626659       -2.12736398        3.94184901
 C            2.62459572       -0.12013947        4.15655535
 C            2.66488534       -1.43978955        3.57283273
 C            2.66207625        1.01735846        3.26502298
 C            0.65647176        1.12660082        4.46028768
 C            1.47970351        1.82960688        3.50919698
 C           -0.64382400       -0.78759777        4.13163998
 C           -0.63008883        0.65736337        4.00992438
 C           -1.20784083       -1.50711897        3.08321666
 C            0.87717757       -2.69579219        2.73223373
 C           -0.46037985       -2.49355447        2.41672997
 C            2.81552376       -1.55366306        2.13257193
 C            1.84613351       -2.52907906        1.67081026
 C            3.07243907        0.85696427        1.94416490
 C            3.03376112       -0.41815237        1.35186323
 C            2.89480984        1.96804251        1.12967985
 C            0.87948087        2.43633325        2.40947226
 C            1.73860762        2.81135559        1.38652662
 C           -1.18340859        1.20479011        2.85747853
 C           -0.45499622        2.13190770        2.08815241
 C           -2.25162746       -0.89500717        2.38866564
 C           -2.22147987        0.49864497        2.25381183
 C           -2.94528895       -1.67020628        1.46647343
 C           -0.87178604       -2.87021726        1.14124997
 C           -2.22948872       -2.77852342        0.87336421
 C            1.37358783       -2.42364597        0.36788168
 C            0.05397717       -2.78347482        0.08670538
 C            2.81867358       -0.52656985       -0.02606729
 C            2.03609337       -1.58213240       -0.51879063
 C            3.02946842        1.83259094       -0.30382852
 C            3.11242419        0.56223697       -0.84852981
 C            1.19880374        3.22410465        0.11096402
 C            2.13186731        2.79573697       -0.91927631
 C           -0.99372033        2.56940127        0.86499585
 C           -0.16191635        3.11228479       -0.12377881
 C           -2.93692846        1.12527590        1.24343582
 C           -2.31040172        2.23231078        0.54750261
 C           -3.73056230       -1.03862296        0.42114372
 C           -3.66959218        0.33628554        0.26865383
 C           -2.70122498       -2.94892994       -0.47904952
 C           -3.65379954       -1.88307693       -0.75615067
 C           -0.38382875       -2.72858070       -1.24374285
 C           -1.72833091       -2.94709721       -1.54721646
 C            1.67529892       -1.60936406       -1.86282053
 C            0.45117836       -2.18867409       -2.23083354
 C            2.93861825        0.44144475       -2.22069627
 C            2.36777234       -0.78108647       -2.74131652
 C            1.65955575        2.53377873       -2.20174620
 C            2.30268086        1.53875857       -2.93599538
 C           -0.59477949        3.18600163       -1.44552624
 C            0.34659635        2.89194831       -2.51834802
 C           -2.73437631        2.17299421       -0.84197377
 C           -3.41258976        0.90540992       -1.04649509
 C           -1.88835860        2.64790741       -1.82558077
 C           -3.27795330       -1.29263920       -2.02901987
 C           -2.33210778       -2.20833695       -2.63990015
 C           -3.04049695        0.07937183       -2.10955939
 C           -0.08126381       -1.97669515       -3.50651340
 C           -1.50259229       -1.72687009       -3.63260664
 C            1.81872630       -0.46637952       -4.04476306
 C            1.66841809        0.97926028       -4.11593205
 C            0.56242177       -1.06183637       -4.42717818
 C           -0.38521008        2.18749424       -3.56376933
 C           -1.70696148        1.87193197       -3.04055495
 C           -2.19670735        0.56667683       -3.11354764
 C           -1.62417568       -0.33205631       -4.01403613
 C            0.27128447        1.26950067       -4.37115565
 C           -0.38377270        0.01465072       -4.68945506
