   70
C70 / DATE: 7/ 1/2024 / Origin: Program Fullerene / C70 from database
 C            1.16302431        0.00321710        4.25908107
 C            2.45045383       -0.27166349        3.66392570
 C            2.46799353       -1.67720261        3.30717854
 C            0.34328721       -1.19262149        4.11637906
 C            1.09579247       -2.14964891        3.34201781
 C           -0.94725589       -0.77682015        3.62394650
 C            0.38795176        1.11549797        3.74874298
 C           -0.98591466        0.67543932        3.67286849
 C            0.87669621        1.89107407        2.70568252
 C            2.84249421        0.47554171        2.48632120
 C            2.03763531        1.50533008        2.01413325
 C            3.19715743       -1.80663593        2.06141607
 C            3.39218326       -0.46626324        1.52586130
 C            2.79313239       -2.80044333        1.18788207
 C            0.54949234       -2.67952586        2.17395055
 C            1.42991899       -3.30786465        1.30085601
 C           -1.49993395       -1.41312653        2.51823287
 C           -0.67980539       -2.19725624        1.68800556
 C           -2.65115810       -0.83748350        1.99955244
 C           -1.84187450        1.33269505        2.79806080
 C           -2.86874697        0.58364334        2.22651883
 C           -0.01410087        2.76128166        2.08059898
 C           -1.39288069        2.48309761        2.13858174
 C            0.49922746        3.59079567        1.08823679
 C            2.21008658        1.91053929        0.69317321
 C            1.58467391        3.08163424        0.27637273
 C            3.18742936       -0.24333880        0.16151817
 C            2.62001749        0.96835068       -0.26051248
 C            3.04882745       -2.61764704       -0.22439142
 C            3.24308135       -1.32892738       -0.71859204
 C            0.98895979       -3.66842409       -0.02849694
 C            2.13525736       -3.50931344       -0.91226690
 C           -1.05254072       -2.44000850        0.34952199
 C           -0.26692184       -3.26665347       -0.46376689
 C           -3.06177710       -1.13552923        0.64640236
 C           -2.21185200       -1.85578321       -0.18230129
 C           -3.61102574        1.11183247        1.09545634
 C           -3.75002220        0.03686472        0.12466992
 C           -2.29001209        3.15862074        1.30930991
 C           -3.35577131        2.40886978        0.66671590
 C           -0.38808023        4.33555165        0.21937794
 C           -1.81184998        4.13653916        0.35240613
 C            1.16605179        3.19184097       -1.10659226
 C           -0.01777181        4.02090940       -1.15205797
 C            2.22447551        1.13088299       -1.59304364
 C            1.23249143        2.05423765       -1.89170556
 C            3.07657669       -1.10833149       -2.08071303
 C            2.48326005        0.13767008       -2.52174027
 C            1.91821574       -3.32189177       -2.26834524
 C            2.53390560       -2.17276652       -2.91177652
 C           -0.54405109       -3.35124110       -1.82416797
 C            0.56101013       -3.43185233       -2.76911843
 C           -2.38191759       -1.75875483       -1.56630117
 C           -1.53438005       -2.46991805       -2.40181628
 C           -3.66727029        0.31698226       -1.23113356
 C           -2.96162281       -0.60902027       -2.09719795
 C           -3.30706367        2.70517837       -0.75824955
 C           -2.32857863        3.76112377       -0.95362230
 C           -1.19080592        3.50669092       -1.82285686
 C           -3.34541690        1.66401971       -1.67658556
 C            0.11884274        1.63696407       -2.63432818
 C           -2.19222429        0.16684115       -3.05663394
 C           -1.11325753        2.28656834       -2.49078201
 C           -2.28071576        1.55612415       -2.66391642
 C            1.44356295       -0.17293305       -3.48574022
 C            1.55841480       -1.58219922       -3.81403643
 C            0.36780214       -2.39615233       -3.77219332
 C           -0.88998821       -1.74542243       -3.48441062
 C            0.18548805        0.41547820       -3.32015213
 C           -0.97828283       -0.35526382       -3.48341038
