   70
C70 / DATE: 7/ 1/2024 / Origin: Program Fullerene / C70 from database
 C            1.24209675       -0.06853485        4.66084489
 C            2.54302176       -0.24020123        4.04503347
 C            2.57864001       -1.58020342        3.49346854
 C            0.42100275       -1.21719587        4.29302340
 C            1.21331236       -2.07257927        3.44482935
 C           -0.83101406       -0.71258116        3.78305175
 C            0.47354397        1.12475637        4.36117422
 C           -0.89504829        0.68969546        4.14823063
 C            1.01410306        2.10253790        3.52969312
 C            2.95656322        0.67425502        2.99415686
 C            2.22570632        1.83144865        2.76427597
 C            3.31585491       -1.52410892        2.24842806
 C            3.39932786       -0.12380131        1.86031394
 C            2.96863199       -2.43658398        1.27063904
 C            0.71050515       -2.48880372        2.21396033
 C            1.63218757       -3.01880151        1.32022619
 C           -1.27277247       -1.09773926        2.51708829
 C           -0.48150057       -1.93469218        1.71385225
 C           -2.30800048       -0.36252854        1.93685329
 C           -1.76040552        1.50035374        3.43641361
 C           -2.66507877        0.86377126        2.50009467
 C            0.12729003        2.88516624        2.68351346
 C           -1.24419815        2.68819838        2.76704445
 C            1.98773001        2.25415728        1.39668353
 C            0.74221437        2.99867458        1.36976699
 C            3.03939194        0.24179628        0.55804942
 C            2.27867867        1.39403822        0.34362775
 C            3.17944989       -2.06462615       -0.10846479
 C            3.12541107       -0.71513909       -0.45974315
 C            1.23454165       -3.28898351       -0.04540617
 C            2.39494880       -3.00971247       -0.87196755
 C           -0.85397028       -2.15572008        0.37700924
 C           -0.01314310       -2.87084669       -0.49068178
 C           -2.74160863       -0.66639217        0.64757587
 C           -2.05204152       -1.61801581       -0.10524368
 C           -3.66587231        0.17922647        0.02465599
 C           -3.13951407        1.92064474        1.63615180
 C           -2.05456564        2.88839194        1.57682541
 C           -3.76404413        1.56473299        0.45511303
 C           -0.05686450        2.93359843        0.23150484
 C           -1.43597683        3.12796356        0.35005045
 C            1.60460386        1.55099249       -0.86311975
 C            0.46568737        2.36686836       -0.93511397
 C            2.71983245       -0.38789023       -1.75806445
 C            2.00103896        0.79641263       -1.96215269
 C            2.18657947       -2.72900205       -2.20558485
 C            2.61636498       -1.43111472       -2.68330568
 C           -0.23694101       -2.83555471       -1.87055539
 C            0.85199095       -2.90928865       -2.73988844
 C           -2.42955431       -1.84975806       -1.42593854
 C           -1.46454334       -2.40357622       -2.35486578
 C           -3.79995265        0.16982008       -1.42281379
 C           -3.18598126       -0.83861152       -2.14325715
 C           -3.50433047        2.38361610       -0.71203934
 C           -2.22709097        3.07252765       -0.79255986
 C           -3.63531420        1.53467239       -1.88109093
 C           -0.25674147        2.46505173       -2.12807697
 C           -1.62138719        2.72544909       -2.06478174
 C           -2.53245628        1.83608473       -2.77191817
 C            1.47001184        1.10275310       -3.21057361
 C            0.22090657        1.83380768       -3.27208118
 C            1.93673719       -1.22490589       -3.94712139
 C            0.82172335       -2.16321212       -3.98615311
 C            1.42041633        0.08881337       -4.24579444
 C           -1.52716191       -1.61800073       -3.58368822
 C           -2.42398400       -0.49828134       -3.33817186
 C           -1.98403370        0.81630518       -3.54148007
 C           -0.71039601        1.03591285       -4.05653886
 C           -0.37488801       -1.42117394       -4.33243145
 C            0.03032867       -0.06433356       -4.64255532
