   70
C70 / DATE: 7/ 1/2024 / Origin: Program Fullerene / C70 from database
 C            1.58881972        0.04696441        4.71764302
 C            0.75919531       -1.13971002        4.78802744
 C            1.37804654       -2.16515326        3.96440694
 C            2.60034443       -0.18234322        3.69990143
 C            2.40674604       -1.51662945        3.16707856
 C            2.55680752        0.93462146        2.77404546
 C            0.75146712        1.13967072        4.25858147
 C            1.43430565        1.77381759        3.15300590
 C           -0.61139636       -0.74757634        4.49948136
 C           -0.58139099        0.62476708        4.01908516
 C           -1.43416278       -1.66412446        3.86384675
 C            0.55517520       -3.10294043        3.35963201
 C           -0.88430509       -2.96654628        3.52140125
 C            0.80001875       -3.47016835        1.97419425
 C            2.40879277       -1.67495521        1.78454924
 C            1.67905479       -2.71479521        1.19741721
 C            2.74771684        0.68845389        1.41447360
 C            2.89088926       -0.63458620        0.98747336
 C            2.29543286        1.64980573        0.50078298
 C            0.67635180        2.30099335        2.12212173
 C            1.33995717        2.57135577        0.93657021
 C           -1.20622048        0.95502338        2.81688166
 C           -0.69085798        2.00593373        2.05023657
 C           -2.24796240       -1.22539355        2.74182192
 C           -2.08751496        0.05437328        2.21758482
 C           -1.51343648       -3.40689549        2.29053200
 C           -0.47042443       -3.88520658        1.40347593
 C           -2.38110262       -2.34074030        1.82179709
 C           -0.66051414       -3.73235716        0.03992623
 C            1.60515084       -2.80555306       -0.19579839
 C            0.47167575       -3.35838376       -0.78809354
 C            3.10836083       -0.87963080       -0.35803011
 C            2.44426389       -2.01533783       -0.97295081
 C            2.49166674        1.43814812       -0.86952647
 C            3.03722385        0.22823913       -1.29235471
 C            1.89443126        2.28498902       -1.81008444
 C            0.67265782        3.35751133        0.01781681
 C            1.05527678        3.30573757       -1.37542475
 C           -1.39567781        2.42792049        0.91711103
 C           -0.77546713        3.35814035        0.08090369
 C           -2.50444318        0.29803759        0.91221307
 C           -2.38510542        1.58790688        0.39696155
 C           -2.42996951       -2.07369400        0.45836499
 C           -1.79166287       -2.94322237       -0.42364045
 C           -2.69626201       -0.77454884        0.03397875
 C           -0.06617320       -2.75964962       -2.00127781
 C           -1.46956281       -2.47953282       -1.76328326
 C            2.01223558       -1.60389284       -2.30101752
 C            2.64308289       -0.32338241       -2.57523695
 C            0.69079406       -1.82102732       -2.69367581
 C            1.87846149        1.91408711       -3.15518223
 C            2.06029073        0.51760798       -3.50518422
 C            0.83790348        2.42961076       -4.03353302
 C           -0.12127782        3.66586146       -2.15229431
 C           -1.27547410        3.58881861       -1.26197649
 C           -0.22066259        3.25058870       -3.47495730
 C           -2.95052599        1.85569031       -0.84982721
 C           -2.43065749        2.93860030       -1.66677833
 C           -2.77833596       -0.52026548       -1.33175521
 C           -1.97757903       -1.26566041       -2.20071777
 C           -3.22197890        0.73398002       -1.73011086
 C            0.03797334       -0.85317563       -3.46492466
 C            0.82112351        0.09474599       -4.12439584
 C            0.21525810        1.28589425       -4.68581290
 C           -1.33183959       -0.62177003       -3.25574335
 C           -1.48305531        2.73652123       -3.97759584
 C           -2.59533389        2.56425938       -3.06030501
 C           -2.98004635        1.16303888       -3.09516193
 C           -1.21733415        1.44534466       -4.59277779
 C           -1.97923891        0.45178819       -3.86389617
