   70
C70 / DATE: 7/ 1/2024 / Origin: Program Fullerene / C70 from database
 C            1.27536040       -0.03872795        4.19899966
 C            2.47679045       -0.28205392        3.42144213
 C            2.43830312       -1.67881948        3.00883423
 C            0.43674260       -1.22383696        4.08463245
 C            1.05824383       -2.10534720        3.12464395
 C           -0.91471898       -0.78679905        3.82402326
 C            0.45655346        1.11859142        3.89392621
 C           -0.91733100        0.66651772        3.78306231
 C            0.92906270        2.06482785        3.00136982
 C            2.93606078        0.68541165        2.52522395
 C            2.21213752        1.86505668        2.34020558
 C            3.85754724        0.30656484        1.55209990
 C            3.15604189       -2.05919667        1.88894923
 C            4.10173432       -1.10980164        1.34011469
 C            2.43538698       -2.64852251        0.76989284
 C            0.35074168       -2.43965261        1.97348911
 C            1.04700153       -2.67483679        0.78243792
 C           -1.68384928       -1.46256940        2.88144085
 C           -1.04227327       -2.29234458        1.94631422
 C           -2.89388371       -0.86076028        2.54591029
 C           -1.79644489        1.28520075        2.89799170
 C           -2.97069153        0.58877106        2.62815560
 C            0.01362596        2.64744179        2.03558888
 C           -1.29332152        2.17332916        1.93222088
 C            2.11866716        2.44630145        1.00912110
 C            0.76056960        2.91244882        0.81814332
 C            3.81410875        0.94271379        0.24321910
 C            2.78144703        1.83629519       -0.04647122
 C            4.17879661       -1.34192432       -0.08834867
 C            3.11454423       -2.26364716       -0.45375080
 C            4.21892071       -0.04848735       -0.74358282
 C            2.37021014       -1.98390432       -1.59914898
 C            0.36483501       -2.68010947       -0.43017213
 C            0.97558761       -2.15822028       -1.57704381
 C           -1.73252389       -2.73504583        0.81886211
 C           -0.99969141       -2.92461867       -0.42103115
 C           -3.62268838       -1.27996154        1.36382736
 C           -3.02988079       -2.17191541        0.48730061
 C           -3.84537506        1.05011317        1.57579470
 C           -4.30682275       -0.11577924        0.83511245
 C           -1.97342142        2.35700548        0.72115511
 C           -3.31230688        1.99048218        0.61847896
 C            0.13650188        2.70573632       -0.40236231
 C           -1.25373067        2.66436502       -0.43913862
 C            2.21794965        1.85983403       -1.32689469
 C            0.87772922        2.25277777       -1.50061303
 C            3.68712122        0.03588237       -2.01694365
 C            2.93813243       -1.10456158       -2.51718968
 C            2.88825218        1.19524845       -2.35125031
 C            2.14589581       -0.61839817       -3.62047806
 C            2.17646303        0.83869730       -3.55734027
 C            0.18412150       -1.73742366       -2.66206807
 C            0.75708394       -1.00946293       -3.70228304
 C           -1.81678689       -2.43097889       -1.51046910
 C           -3.05193556       -1.90786507       -0.94555490
 C           -1.21124764       -1.75637315       -2.56114603
 C           -4.18904785        0.19477715       -0.57800104
 C           -3.84447314        1.60714434       -0.67371485
 C           -3.58618923       -0.71854631       -1.44548118
 C           -1.89186597        2.67622423       -1.67247492
 C           -3.20163266        2.05685104       -1.81321512
 C            0.24910796        2.11742209       -2.75055566
 C            0.81794186        1.29599333       -3.72023177
 C            0.05640485        0.15490404       -4.19962826
 C           -1.11858400        2.36536795       -2.86077566
 C           -1.97474776       -0.84900055       -3.29774940
 C           -3.16836682       -0.27146498       -2.69653883
 C           -3.13384416        1.15910764       -2.94739581
 C           -1.31951531        0.19624472       -4.07121952
 C           -1.91453440        1.45730714       -3.67172114
