   70
C70 / DATE: 7/ 1/2024 / Origin: Program Fullerene / C70 from database
 C            1.61938296       -0.02935753        4.41901786
 C            0.79402653       -1.18477813        4.13970458
 C            1.40250866       -1.92395229        3.04893658
 C            2.67517497        0.00031397        3.42302426
 C            2.46532598       -1.09668596        2.50579813
 C            2.70469780        1.33127145        2.87394160
 C            0.79629280        1.15202333        4.22049181
 C            1.52236847        2.03959221        3.34517989
 C           -0.56916386       -0.72536357        3.95365066
 C           -0.51822742        0.71892316        3.80259978
 C           -1.36041310       -1.44015514        3.06926506
 C            0.54335533       -2.56064503        2.16493760
 C           -0.80967745       -2.58195246        2.48718224
 C            0.89577019       -2.64376168        0.81867600
 C            2.47657237       -0.83704743        1.13830749
 C            1.79517675       -1.70580367        0.28747991
 C            3.04471450        1.50083412        1.54039499
 C            2.90152389        0.41172147        0.65632837
 C            2.83106901        2.78059139        1.05368392
 C            0.82031586        2.79885055        2.41309877
 C            1.60263875        3.44193617        1.45544187
 C           -1.08494526        1.29256510        2.66562349
 C           -0.49402062        2.42502430        2.08188764
 C           -2.33420944       -0.74732433        2.35425023
 C           -2.06105650        0.56954248        1.96668422
 C           -3.24716447       -1.49968593        1.61860734
 C           -1.64237100       -3.38748699        1.72825231
 C           -3.00043508       -2.92582403        1.51168694
 C            0.07473612       -3.39230130       -0.03153512
 C           -1.14150266       -3.87913918        0.45508372
 C            0.27660899       -3.33776571       -1.40879708
 C            1.91779777       -1.54396200       -1.08982278
 C            1.29219790       -2.44709357       -1.94273075
 C            2.92264955        0.63062511       -0.73171097
 C            2.44150937       -0.35445581       -1.60236155
 C            3.05202444        3.04514465       -0.34247429
 C            3.15547606        1.91355795       -1.23245727
 C            0.99518823        4.00434327        0.26427422
 C            1.95471130        3.87675080       -0.81630806
 C           -1.12264842        3.01833126        0.98912862
 C           -0.34312746        3.76016192        0.01249765
 C           -2.51171061        1.02292401        0.72401439
 C           -2.13590730        2.27351624        0.26700257
 C           -3.63566322       -1.03006522        0.29999464
 C           -3.02326136        0.11177386       -0.19098064
 C           -3.42086452       -3.36334870        0.19493825
 C           -2.27356041       -3.97461036       -0.45036910
 C           -3.76987533       -2.17976287       -0.56910103
 C           -0.87559503       -3.27598368       -2.30439755
 C           -2.14715739       -3.38268628       -1.76469484
 C           -2.99931677       -2.20195383       -1.79407936
 C            0.81969015       -1.99377976       -3.23819374
 C           -0.61716760       -2.19862959       -3.23829861
 C            2.26410470       -0.04789673       -2.95585337
 C            1.31267779       -0.80666220       -3.74940551
 C            2.50713863        2.32073321       -2.46212470
 C            1.52337510        3.32860031       -2.08903576
 C            2.14252488        1.34119723       -3.36526210
 C           -0.76838744        3.34116211       -1.31748243
 C           -1.90744585        2.45085697       -1.15684657
 C            0.16839025        3.08212899       -2.31893679
 C           -2.60057783        0.16864634       -1.52607378
 C           -2.46266213       -1.01048930       -2.27449877
 C           -1.46164549       -1.08890707       -3.23939327
 C           -2.05323852        1.36145646       -2.01436249
 C            0.35958612        0.14361664       -4.29507705
 C            0.86155077        1.47778589       -4.03020970
 C           -0.18558888        2.23079304       -3.36204659
 C           -1.01759701        0.08108787       -3.83752318
 C           -1.33666748        1.35093348       -3.20862281
