   70
C70 / DATE: 7/ 1/2024 / Origin: Program Fullerene / C70 from database
 C            1.62599759       -0.02466079        4.45790010
 C            0.81656523       -1.22188774        4.33442654
 C            1.35205056       -2.02500880        3.24654764
 C            2.64192381       -0.07404128        3.42533783
 C            2.51188447       -1.33499126        2.71565198
 C            2.55582822        1.15037948        2.64807552
 C            0.77071629        1.11312629        4.17386916
 C            1.35811214        1.85309149        3.06956858
 C           -0.57231895       -0.81050004        4.26477489
 C           -0.58873718        0.62488478        4.02531892
 C           -1.44497843       -1.60904103        3.54535117
 C            0.46198999       -2.62350997        2.36147083
 C           -0.89319522       -2.65666990        2.69946019
 C            0.84726953       -2.82550245        1.03255642
 C            2.71284192       -1.31775417        1.34264667
 C            1.97992008       -2.18026209        0.52260416
 C            2.82534900        1.06769028        1.28810572
 C            3.24211143       -0.16008504        0.78286119
 C            2.20919817        1.96707298        0.41598669
 C            0.51214345        2.35912711        2.09072938
 C            1.01819104        2.59398604        0.81023054
 C           -1.35848309        1.13585767        2.98304800
 C           -0.86469247        2.22057044        2.25877978
 C           -2.50461434       -0.97725249        2.78253899
 C           -2.39862391        0.37058694        2.44518414
 C           -1.88789711       -2.95307373        1.68225669
 C           -2.92275948       -1.93162033        1.77205949
 C           -0.03855896       -3.44329749        0.15956330
 C           -1.46405916       -3.40133581        0.44042278
 C            0.13068314       -3.26988461       -1.26726688
 C            2.23243322       -2.16535104       -0.85823281
 C            1.28302624       -2.67378629       -1.76022238
 C            3.67028359       -0.21378834       -0.52926647
 C            3.28226176       -1.36519751       -1.31948368
 C            2.58420988        1.94293340       -0.93067484
 C            3.47142550        0.95732423       -1.36154316
 C            1.83572642        2.64295813       -1.87178358
 C            0.20311288        3.22826390       -0.13160440
 C            0.59780644        3.28225906       -1.46556157
 C           -1.70746096        2.86054071        1.36620975
 C           -1.13121302        3.47828208        0.18537136
 C           -3.12147337        0.86413070        1.35511602
 C           -2.92812169        2.18601186        0.96411227
 C           -3.52966144       -1.45679338        0.61870533
 C           -3.73303724       -0.02566933        0.46746497
 C           -2.14310197       -2.94848020       -0.76396413
 C           -1.14880851       -2.84757079       -1.81623745
 C           -3.13805311       -1.98542603       -0.68021499
 C           -1.17227528       -1.77504362       -2.70647813
 C            1.20780311       -2.16757465       -3.05758986
 C           -0.04917967       -1.58927752       -3.50316192
 C            3.34508603       -0.95802759       -2.71060677
 C            3.42301142        0.49565948       -2.73846467
 C            2.28236467       -1.36389000       -3.59723095
 C            1.61283042        2.07133199       -3.19410501
 C            0.24333195       -0.27057201       -4.02595234
 C            2.37183287        0.98686844       -3.60890859
 C            1.68865515       -0.16584641       -4.17008800
 C           -0.38490196        3.04633737       -2.51806493
 C            0.17611463        2.04222560       -3.39946570
 C           -0.47286842        0.81619249       -3.54279299
 C           -2.12942827        3.42000865       -0.86738175
 C           -3.21524200        2.57254299       -0.40654475
 C           -1.72413501        2.95382390       -2.17817763
 C           -3.73500103        0.25797875       -0.96067642
 C           -3.13238295       -0.88185493       -1.62649900
 C           -2.03055136       -0.69666433       -2.46170426
 C           -1.68080499        0.59691898       -2.87703345
 C           -3.42345237        1.53368535       -1.39729007
 C           -2.41401928        1.69854145       -2.43003342
