   70
C70 / DATE: 7/ 1/2024 / Origin: Program Fullerene / C70 from database
 C            1.52937787        0.10108724        4.77257263
 C            0.74575365       -1.11939410        4.72927526
 C            1.42390392       -2.05719851        3.85027046
 C            2.68864818       -0.09008649        3.91989598
 C            2.71831375       -1.48272556        3.51426911
 C            2.66544315        0.92787736        2.88091103
 C            0.72209796        1.15461690        4.18784756
 C            1.44738435        1.69894200        3.05593550
 C           -0.62363664       -0.75512676        4.41424094
 C           -0.60959620        0.62583052        3.95378941
 C           -1.38796858       -1.67186685        3.71133180
 C            0.67083218       -2.70881510        2.87072485
 C           -0.70787774       -2.77888456        3.05317247
 C            1.21967920       -2.91351825        1.59616602
 C            3.27410384       -1.77874152        2.28312378
 C            2.58753681       -2.72253709        1.42363472
 C            3.05971018        0.56847563        1.59013872
 C            3.67038762       -0.67509440        1.42393307
 C            2.46251475        1.20595908        0.48795315
 C            0.73168222        2.04712797        1.92440460
 C            1.39754244        2.08719758        0.70722619
 C           -1.24585812        0.95330471        2.75703095
 C           -0.65464414        1.89886655        1.91697361
 C           -2.37007842       -1.17682601        2.76683872
 C           -2.21750785        0.09943077        2.23100056
 C           -1.54882934       -3.20899559        1.95720701
 C           -2.65862200       -2.27258755        1.86971357
 C            0.38748423       -3.05100238        0.47055026
 C           -0.96404910       -3.31696446        0.63772070
 C            0.83940706       -2.68413004       -0.80213401
 C            3.11420440       -2.51221875        0.09137619
 C            3.80874066       -1.22991324        0.09808159
 C            2.19679555       -2.49609120       -1.02783535
 C            2.75359270        0.78769369       -0.82042099
 C            3.31589085       -0.46931935       -1.02614889
 C            2.60233720       -1.39745854       -1.87812722
 C            2.03780589        1.33998739       -1.88587907
 C            0.73112658        2.65219433       -0.37401220
 C            1.24604433        2.46125839       -1.65236573
 C           -1.34375415        2.31517154        0.78326926
 C           -0.61950544        2.96819877       -0.21422074
 C           -2.74825521        0.38728523        0.97054381
 C           -2.52819381        1.65867242        0.44288870
 C           -2.86256976       -1.96889535        0.47201442
 C           -1.90757144       -2.73811224       -0.29889093
 C           -3.07390156       -0.65335519        0.08654497
 C           -0.06567069       -2.20929358       -1.76061105
 C           -1.43485965       -2.16695647       -1.47407231
 C            1.66717564       -0.85961917       -2.74153220
 C            1.73347777        0.50898033       -2.96942329
 C            0.42428458       -1.48227462       -2.85372071
 C            1.01360813        1.01550473       -4.04223421
 C            0.63787202        3.09619471       -2.73196428
 C            0.57439584        2.39625278       -4.00027107
 C           -1.31133414        3.57225869       -1.25484307
 C           -0.64257558        3.74814907       -2.52961267
 C           -3.14888673        1.97850923       -0.76067619
 C           -2.65808970        3.11283218       -1.52203503
 C           -3.04390782       -0.38856976       -1.28026132
 C           -2.21857774       -1.18607830       -2.08391030
 C           -3.39114596        0.89344823       -1.69054704
 C           -0.48134646       -0.95925507       -3.77621199
 C           -0.08559055        0.21211953       -4.54524640
 C           -1.85769942       -0.76428364       -3.35771952
 C           -0.79979006        2.44365842       -4.47514736
 C           -1.54903494        3.29867087       -3.57598135
 C           -2.74025471        2.77420668       -2.93219839
 C           -3.04807047        1.35405941       -3.02378484
 C           -1.24414687        1.07657520       -4.68465316
 C           -2.30575458        0.52559155       -3.85587869
