   70
C70 / DATE: 7/ 1/2024 / Origin: Program Fullerene / C70 from database
 C            1.40376385       -0.05592201        4.13959801
 C            2.45866256       -0.16422485        3.14661004
 C            2.43844113       -1.53068908        2.66035116
 C            0.53656254       -1.21394012        3.98198883
 C            1.12743533       -2.07285484        2.97108238
 C           -0.81293516       -0.72809879        3.77400511
 C            0.56630133        1.12976939        4.15218279
 C           -0.81958055        0.68947758        4.09019135
 C            0.96758080        2.24074755        3.42123449
 C            2.66349961        0.88054153        2.24648716
 C            2.10070824        2.13012622        2.51213492
 C            3.21466685        0.61357694        0.98773686
 C            2.98782060       -1.80311198        1.42107881
 C            3.48224782       -0.70168105        0.61129563
 C            2.28158154       -2.70311093        0.52825788
 C            0.32676350       -2.54806923        1.93391384
 C            0.92912639       -2.96519159        0.74218252
 C           -1.52514535       -1.18712164        2.67013011
 C           -1.04627700       -2.29161790        1.96221848
 C           -2.51857521       -0.38470137        2.10143167
 C           -1.77433228        1.50089708        3.49353798
 C           -2.74355654        0.89614258        2.59604372
 C           -0.03169716        3.08527384        2.78451199
 C           -1.37965645        2.77727531        2.91502812
 C            1.88095950        3.07051785        1.42803177
 C            0.48875803        3.48499280        1.48434005
 C            3.22211663        1.60160139        0.00510907
 C            2.45513931        2.82126318        0.19524279
 C            3.09303131        1.21699194       -1.39423750
 C            3.33865550       -1.08742730       -0.78633721
 C            2.74522252       -2.41371015       -0.81447755
 C            2.95033136       -0.13042149       -1.72182945
 C            1.94444944       -2.77072200       -1.88354068
 C            0.13666020       -3.39529315       -0.32458498
 C            0.65822362       -3.39509256       -1.62091215
 C           -1.85792496       -2.85848696        0.98881519
 C           -1.23562938       -3.52719373       -0.13831880
 C           -3.05615987       -0.74030956        0.86387614
 C           -2.96583895       -2.07258005        0.47671361
 C           -3.24985270        0.24611708       -0.11301332
 C           -3.18042884        1.92219234        1.67371004
 C           -2.26804152        3.04678132        1.79905979
 C           -3.27739632        1.58331022        0.26669386
 C           -0.31463524        3.38134451        0.34577636
 C           -1.69600058        3.29744970        0.48740296
 C           -2.45386026        2.52057232       -0.47539584
 C            1.65212423        3.01143734       -0.99667336
 C            2.26008463        2.21438760       -2.04596012
 C            0.26334066        3.05874396       -0.88420443
 C            1.48519544        1.83817169       -3.12754152
 C            2.16834834       -0.50187836       -2.82184541
 C            1.75794864       -1.82773820       -2.97161055
 C            1.60105414        0.48237611       -3.63001233
 C           -0.20637890       -3.10393102       -2.75615366
 C            0.47474788       -2.12772833       -3.59297365
 C           -2.12954603       -3.39140950       -1.27541261
 C           -3.14910967       -2.41823672       -0.92001802
 C           -1.57842327       -3.00909101       -2.56278277
 C           -2.96795558       -0.04525040       -1.44817609
 C           -3.10257287       -1.35430899       -1.89993536
 C           -2.28848585       -1.81930005       -3.00975294
 C           -1.81463375        2.06736923       -1.62152347
 C           -0.52909653        2.53221808       -1.90982470
 C            0.07060519        2.16673385       -3.11373645
 C           -2.26998574        0.88967028       -2.21821105
 C            0.37305676        0.19515127       -4.35116903
 C           -0.25182836       -1.10514434       -4.18962715
 C           -1.63567838       -0.88191123       -3.79782716
 C           -0.60071986        1.20888691       -3.97434564
 C           -1.77327626        0.52539148       -3.46604048
