   70
C70 / DATE: 7/ 1/2024 / Origin: Program Fullerene / C70 from database
 C            1.13904052        0.17556373        5.43550997
 C            0.47318973       -1.04560998        5.03051148
 C            1.48579991       -1.93320756        4.50371321
 C            2.49264096        0.13583560        4.89785976
 C            2.68072267       -1.14674416        4.25212801
 C            2.67980884        1.33000577        4.10969380
 C            0.44453316        1.28516758        4.80523471
 C            1.44704618        2.10696183        4.17820411
 C           -0.64004947       -0.69094962        4.16302510
 C           -0.61931398        0.74942872        3.97223362
 C           -0.91748375       -1.49030377        3.05883527
 C            1.17738073       -2.62950032        3.27927501
 C           -0.12897650       -2.62538147        2.81709071
 C            2.94605235       -1.20034748        2.81624696
 C            2.21631975       -2.33529372        2.30527138
 C            3.02464491        1.20461891        2.70148607
 C            2.96967842       -0.03433258        2.06141873
 C            1.18613248        2.58513381        2.83988269
 C            2.37952553        2.32166247        2.06542931
 C           -0.82097869        1.25747963        2.68283178
 C           -0.04132198        2.32742572        2.22023269
 C           -1.61412820       -0.91362283        1.99187324
 C           -1.49054492        0.45791356        1.75265401
 C           -2.07623178       -1.74157174        0.97642841
 C           -0.31092976       -3.28063035        1.61579682
 C           -1.49995164       -3.00139055        0.85437706
 C            1.84810220       -2.37481060        0.96190245
 C            0.79194225       -3.22393270        0.66612446
 C            2.61145500       -0.07995892        0.70497193
 C            2.02608505       -1.23456427        0.16066631
 C            2.19711148        2.28484183        0.70516729
 C            2.52218600        1.12276080        0.00265003
 C           -0.11415204        2.67086640        0.86538186
 C            1.09832026        2.97785049        0.24921546
 C           -1.76536920        0.96505266        0.47986576
 C           -1.14104174        2.14461682        0.07067471
 C           -2.67603434       -1.18396449       -0.15147427
 C           -2.42569209        0.16393989       -0.45594604
 C           -3.00457093       -2.06748920       -1.17632248
 C           -1.20121961       -3.49286292       -0.46964802
 C            0.21027081       -3.20578917       -0.65529415
 C           -2.05659378       -3.12288006       -1.47839704
 C            1.41928711       -1.16973975       -1.11205875
 C            0.57121095       -2.20019181       -1.54695062
 C            2.19684630        1.11268265       -1.35631355
 C            1.56566413       -0.01979544       -1.89939259
 C            1.10228578        3.25302818       -1.09342996
 C            1.90784798        2.36224600       -1.90172727
 C           -1.20274204        2.53337756       -1.27474524
 C           -0.16453940        3.32882111       -1.76500237
 C           -2.66478789        0.65990774       -1.74698932
 C           -2.01649893        1.82895000       -2.17297229
 C           -3.43982342       -1.54708679       -2.45164272
 C           -3.37007756       -0.12242939       -2.66683461
 C           -1.45982906       -2.70885855       -2.72184419
 C           -0.24587148       -2.01103984       -2.66664848
 C           -2.57446714       -2.15625669       -3.45556564
 C            0.89784136        0.06858895       -3.13865061
 C           -0.04116757       -0.90946634       -3.50187015
 C            1.39361094        2.45545610       -3.24353243
 C            0.19162638        3.27880273       -3.16545257
 C            1.00910199        1.23558401       -3.90327405
 C           -1.97028228        2.15072589       -3.53932004
 C           -0.76038013        2.72257405       -4.08544642
 C           -0.08146088        1.63397797       -4.76978811
 C           -3.09196121        0.01168164       -4.08151027
 C           -2.29765869       -1.15067936       -4.44349321
 C           -0.93703086       -0.67512200       -4.55806006
 C           -2.34589033        1.16120043       -4.52289724
 C           -1.09425889        0.66107319       -5.08136944
