   70
C70 / DATE: 7/ 1/2024 / Origin: Program Fullerene / C70 from database
 C            1.61500263        0.05631733        4.76192618
 C            0.81146355       -1.14540216        4.61830408
 C            1.59392307       -2.09891795        3.87092356
 C            2.72513132       -0.04625239        3.83012547
 C            2.78391104       -1.41429489        3.37816738
 C            2.57047605        0.99912608        2.83809611
 C            0.79778790        1.18096426        4.34709866
 C            1.47766821        1.85641447        3.26069770
 C           -0.48372292       -0.75504108        4.09496812
 C           -0.54344106        0.69524404        4.09400219
 C           -1.04101818       -1.43530848        3.01188591
 C            0.97951661       -2.75603805        2.73526405
 C           -0.34124613       -2.48174936        2.38334733
 C            2.86360358       -1.66837763        1.95289435
 C            1.96769142       -2.77156606        1.68038116
 C            2.68527499        0.70426312        1.48002088
 C            2.89549137       -0.61084100        1.04033927
 C            2.19278974        1.63542899        0.57427068
 C            0.69283807        2.43865761        2.27368329
 C            1.22097909        2.55443038        0.99007654
 C           -1.26996617        1.31001850        3.08324418
 C           -0.69344678        2.39378253        2.41418464
 C           -2.10111039       -0.82326282        2.34008558
 C           -2.25092837        0.56518869        2.42904986
 C           -2.76091150       -1.53336335        1.34306695
 C           -0.77116173       -2.93062685        1.13066180
 C           -2.07421654       -2.65181568        0.72835133
 C            1.51702628       -2.91538265        0.38259644
 C            0.18921931       -3.28576032        0.17510122
 C            2.65507523       -0.91945547       -0.30592338
 C            2.16430284       -2.19145109       -0.61243314
 C            2.40469712        1.42735829       -0.78001111
 C            2.53067856        0.11347407       -1.24430211
 C            2.07103940        2.45548862       -1.64690264
 C            0.51133292        3.29276028        0.03846587
 C            0.98129242        3.33466688       -1.27240263
 C           -1.46542422        3.09215039        1.49425337
 C           -0.84460196        3.54435061        0.25872900
 C           -3.11941080        1.22968789        1.56745244
 C           -2.78583839        2.58383409        1.16698665
 C           -3.47679243       -0.82344878        0.29484783
 C           -3.63475125        0.54617318        0.39453957
 C           -2.41669529       -2.65529939       -0.68548368
 C           -3.06317485       -1.39037620       -0.97582430
 C           -0.20480299       -3.59262936       -1.12492697
 C           -1.50766378       -3.15738103       -1.59857253
 C            1.90355135       -2.52963202       -1.93044860
 C            0.74728047       -3.36610987       -2.20140863
 C            2.29850228       -0.19669626       -2.59509659
 C            1.95713233       -1.50134949       -2.94971265
 C            1.95528040        2.18784341       -3.06282387
 C            2.03051930        0.81714631       -3.51360508
 C            0.01076510        3.27017920       -2.34960086
 C            0.68237395        2.73401043       -3.51326704
 C           -1.78573721        3.31002025       -0.82767237
 C           -2.96367044        2.67973117       -0.27271591
 C           -3.32822260        1.36951448       -0.76221401
 C           -1.28026658        2.85803649       -2.03992445
 C           -2.53384579       -0.56339167       -1.96742034
 C           -2.59719347        0.82657455       -1.81502068
 C           -1.76792655        1.65468487       -2.57896316
 C           -1.30277861       -2.44314477       -2.84864409
 C            0.02678640       -2.78111742       -3.31699353
 C            0.84619395       -1.72336275       -3.86938178
 C           -1.74883571       -1.12618846       -2.97864515
 C            0.94898254        0.62331257       -4.46317302
 C            0.00813552        1.71214485       -4.28130106
 C           -1.21919046        1.14450595       -3.75304185
 C            0.20343571       -0.61629361       -4.39946094
 C           -1.13915891       -0.29615647       -3.92077149
