   70
C70 / DATE: 7/ 1/2024 / Origin: Program Fullerene / C70 from database
 C            1.24707133       -0.02905335        4.89950697
 C            2.53244940       -0.29802752        4.29133658
 C            2.41529107       -1.55265816        3.55857836
 C            0.42271455       -1.21082723        4.70706915
 C            1.03233208       -1.98113249        3.64198034
 C           -0.93895368       -0.75583937        4.53696785
 C            0.46842374        1.10425372        4.42792073
 C           -0.91370691        0.69886427        4.53973484
 C            0.87836563        1.80859825        3.29075394
 C            3.07751302        0.68784061        3.38238226
 C            2.21560012        1.75332238        2.89374057
 C            2.99814163       -1.35425228        2.24352679
 C            3.57469567       -0.02652776        2.22115963
 C            2.29257705       -1.77060749        1.11943528
 C            0.33395302       -2.19725664        2.45508341
 C            1.05682861       -2.39948810        1.27743282
 C           -1.66538638       -1.16229522        3.34974626
 C           -1.03309872       -1.91006735        2.36583143
 C           -1.83408138        1.14464330        3.52273862
 C           -2.46019843       -0.02734849        2.93340584
 C           -0.07593161        2.34375011        2.40924741
 C           -1.44885124        2.15797737        2.66204984
 C            0.35000345        2.84866473        1.16767107
 C            2.54748667        1.95217130        1.49511127
 C            3.31477337        0.79967272        1.05901734
 C            1.57376155        2.44521742        0.63797960
 C            2.57286201       -1.16464735       -0.10479559
 C            2.92697010        0.18544594       -0.12385407
 C            2.00164911       -1.71328564       -1.25096193
 C            0.37406188       -2.79808668        0.13030093
 C            1.04261382       -2.71430946       -1.09055507
 C           -1.63430016       -1.97581703        1.11575684
 C           -1.02091293       -2.74859437        0.14036533
 C           -2.86935250        0.05810966        1.60247822
 C           -2.52203628       -0.96727178        0.71480876
 C           -2.36306945        2.44847216        1.66136113
 C           -3.10402323        1.33364511        1.08877705
 C           -0.55908829        3.46811531        0.31828891
 C           -1.97104012        3.32258016        0.58565667
 C           -0.37694444        3.34735630       -1.11893079
 C            1.65665447        2.13085819       -0.72229429
 C            2.36944199        0.98713895       -1.10938277
 C            0.78018873        2.75124584       -1.62057391
 C            2.02338892       -0.97261023       -2.43471167
 C            2.14119518        0.41995559       -2.35623749
 C            1.62260264       -1.58904808       -3.61901214
 C            0.44773874       -3.27954936       -2.21366365
 C            0.81361782       -2.78940513       -3.53060107
 C           -1.71345088       -2.95304959       -1.04514386
 C           -0.98986790       -3.44939512       -2.19875737
 C           -2.79078641       -0.80868936       -0.64851817
 C           -2.59359737       -1.89018726       -1.49551508
 C           -3.15836052        1.53089677       -0.35048856
 C           -2.61090345        2.83895343       -0.62534679
 C           -1.65432046        2.95388331       -1.69616148
 C           -2.82155674        0.47497163       -1.18906748
 C           -1.63311435        1.98646566       -2.68875293
 C           -2.20771571        0.72722983       -2.42899161
 C            0.75246609        2.32376809       -2.94819705
 C            1.61313454        1.23251374       -3.35019600
 C           -0.54648903        2.05659524       -3.54336809
 C            1.06693047       -0.79236942       -4.69417649
 C            1.02211596        0.64398595       -4.53624630
 C           -0.37824123        1.03845453       -4.55093219
 C           -0.41708891       -2.54660900       -4.27300265
 C           -1.52370457       -2.77730243       -3.36890146
 C           -2.29898234       -1.64119263       -2.89445623
 C           -1.96453538       -0.34797656       -3.30015349
 C           -0.30091509       -1.24329532       -4.89130175
 C           -1.16500840       -0.16754431       -4.43395256
