   70
C70 / DATE: 7/ 1/2024 / Origin: Program Fullerene / C70 from database
 C            1.40769001        0.02322148        4.38712381
 C            2.60943289       -0.31471019        3.66277132
 C            2.55438550       -1.73338513        3.34435501
 C            0.55688020       -1.15523775        4.42909275
 C            1.28792464       -2.25734553        3.82808505
 C           -0.74144354       -0.78919918        3.87638086
 C            0.60320240        1.11761141        3.89437651
 C           -0.76527275        0.64767536        3.76220348
 C            1.09707222        1.95616783        2.89728869
 C            2.90354069        0.40519615        2.43600147
 C            2.09786671        1.47683088        2.03614588
 C            2.88699545       -1.88514906        1.93616860
 C            3.29535736       -0.58144577        1.44616865
 C            2.08807101       -2.69480663        1.12916829
 C            0.58888005       -3.14061753        3.02006426
 C            1.16844193       -3.53779727        1.74862859
 C           -1.27731959       -1.56215583        2.85663477
 C           -0.81159366       -2.86880990        2.74579603
 C           -1.88390887       -0.93198705        1.75458667
 C           -1.54542979        1.24963032        2.78924655
 C           -2.08446727        0.46049892        1.75717433
 C            0.19757432        2.89929976        2.41815118
 C           -1.21457842        2.56930941        2.51634840
 C            0.39694367        3.47287294        1.10562773
 C            2.08180314        1.82033871        0.67518588
 C            1.20378072        2.80017799        0.20138264
 C            3.08862510       -0.28511056        0.11270166
 C            2.79121877        1.02954603       -0.23128951
 C            1.95530670       -2.37625778       -0.23138154
 C            2.69820408       -1.31008282       -0.74460140
 C            0.94761078       -2.96062558       -1.01846622
 C            0.08536898       -4.10192479        0.97663379
 C           -1.16126601       -3.65494396        1.58997372
 C           -0.00189023       -3.79270294       -0.43219658
 C           -2.28737362       -1.68774969        0.64192145
 C           -1.94821173       -3.03877355        0.54940835
 C           -1.40190044       -3.53443818       -0.69791101
 C           -2.70224695       -1.04040641       -0.52290127
 C           -2.65437054        1.08217187        0.63137677
 C           -2.92311403        0.33580229       -0.51915747
 C           -1.90401272        3.26112179        1.46172726
 C           -0.89710845        3.94938549        0.66669089
 C           -2.70441910        2.47608129        0.55338724
 C           -1.26129758        3.77137879       -0.72128536
 C           -2.56184543        3.11713831       -0.73729518
 C            0.95359822        2.91376999       -1.17242166
 C           -0.29405018        3.36093378       -1.63494782
 C            2.81748430        1.37897739       -1.57458449
 C            1.86060882        2.35248429       -2.06723623
 C            2.66959308       -1.05107675       -2.10816578
 C            2.91208724        0.31081998       -2.55337744
 C            0.66012356       -2.43075352       -2.28049146
 C            1.57765148       -1.58856083       -2.89548866
 C           -1.72745059       -2.85639606       -1.85383792
 C           -2.61561919       -1.71834184       -1.74105777
 C           -0.65475599       -2.44688547       -2.74627775
 C           -2.46069007       -0.96603081       -2.96802584
 C           -1.15464993       -1.31740031       -3.51734182
 C           -3.21174449        0.98961234       -1.72417697
 C           -2.92527323        2.40726789       -1.86644979
 C           -2.87489782        0.35200635       -2.98712601
 C           -0.73247694        2.98961547       -2.90416214
 C           -2.11366855        2.56689094       -3.06063911
 C           -2.11411737        1.30202244       -3.77335599
 C            1.40595095        1.90934233       -3.37613388
 C            1.98636212        0.60530302       -3.63049673
 C            1.10052140       -0.53480310       -3.78159368
 C           -0.26887417       -0.31714837       -3.91700959
 C            0.08459761        2.12050983       -3.72973034
 C           -0.73941689        0.98204706       -4.11736411
