   70
C70 / DATE: 7/ 1/2024 / Origin: Program Fullerene / C70 from database
 C            1.12626659       -0.05031493        4.65634671
 C            2.38461096       -0.32200788        4.00491637
 C            2.30424476       -1.66733937        3.45645704
 C            0.29607155       -1.23763100        4.50650253
 C            0.90851310       -2.04398841        3.47415963
 C           -1.06138654       -0.78843456        4.31154660
 C            0.33614571        1.06953795        4.19247337
 C           -1.03879040        0.66485240        4.36433271
 C            0.68413067        1.73257455        3.01314692
 C            2.80647994        0.54210384        2.92158730
 C            1.93203572        1.50083599        2.40403851
 C            2.98417240       -1.64539281        2.17827474
 C            3.52814844       -0.31131567        1.99951061
 C            2.38201216       -2.25062465        1.08322087
 C            0.26116716       -2.22449243        2.25163837
 C            1.01967688       -2.58196268        1.14149775
 C           -1.74553348       -1.15206272        3.08476591
 C           -1.04568479       -1.76202863        2.05039289
 C           -1.99874203        1.13443619        3.39567025
 C           -2.59627102       -0.03241069        2.76237530
 C           -0.30121964        2.46074172        2.33162248
 C           -1.66207220        2.20371813        2.57431538
 C            0.07675689        3.24065979        1.24223409
 C            2.20339187        2.03287726        1.13752559
 C            1.33088790        2.95535590        0.57590277
 C            3.72871187        0.13977416        0.70416732
 C            3.10988988        1.38985692        0.29403030
 C            2.96143740       -2.03197715       -0.16374617
 C            3.56993303       -0.79876147       -0.39783560
 C            2.44868967       -2.72671057       -1.25017926
 C            0.36033117       -2.90712700       -0.03764301
 C            1.14729821       -3.34236330       -1.09301679
 C           -1.53753915       -1.64514952        0.74519701
 C           -0.88607238       -2.31797936       -0.29092251
 C           -3.05143038        0.12287947        1.45974517
 C           -2.56007814       -0.72818459        0.45315803
 C           -2.59995839        2.50778892        1.59346602
 C           -3.42717412        1.41458138        1.11498047
 C           -0.89304457        3.58298122        0.21761594
 C           -2.23059266        3.31082098        0.44363537
 C            1.07715431        2.90352255       -0.85843621
 C           -0.30350329        3.27501299       -1.08014996
 C            2.80859239        1.29370295       -1.12835042
 C            3.18100928       -0.03389886       -1.57356978
 C            1.64670793        1.88191414       -1.61191994
 C            2.41339922       -2.05829625       -2.53458775
 C            2.42552428       -0.66506549       -2.55026446
 C            0.56576305       -3.47094528       -2.40975933
 C            1.45252758       -2.78251953       -3.33957061
 C           -1.38143247       -2.22783569       -1.59814279
 C           -0.76441274       -2.94915385       -2.62439585
 C           -2.93209489       -0.50950059       -0.88359944
 C           -2.35640842       -1.27033847       -1.90702593
 C           -3.80039476        1.70075135       -0.24369875
 C           -3.06078549        2.88295010       -0.66695754
 C           -3.57999490        0.67836127       -1.23998272
 C           -1.04249006        2.59363206       -2.04016579
 C           -2.43283319        2.55205459       -1.93271425
 C           -3.13675275        1.38371625       -2.42531749
 C            0.87861129        1.21232399       -2.57358750
 C            1.36991511        0.02813022       -3.15505976
 C           -0.40176898        1.69611089       -2.89917850
 C            0.62183345       -2.03332953       -4.25296436
 C           -0.75188893       -2.40916226       -3.96867075
 C            0.67384234       -0.58458062       -4.19730884
 C           -2.47087997       -0.78979873       -3.21747037
 C           -2.53692685        0.63942105       -3.41584013
 C           -1.19498521        1.01191576       -3.81783247
 C           -1.56242157       -1.25094947       -4.24353371
 C           -0.66031981       -0.13626293       -4.51705152
