   70
C70 / DATE: 7/ 1/2024 / Origin: Program Fullerene / C70 from database
 C            1.27417543       -0.01894588        5.25789101
 C            0.50646328       -1.23403302        5.06946845
 C            1.43803993       -2.26374811        4.65869857
 C            2.55840120       -0.21158943        4.60089478
 C            2.65814070       -1.60154243        4.21782833
 C            2.66621869        0.78871684        3.56289724
 C            0.58119379        1.05456125        4.56444701
 C            1.53156969        1.68962539        3.68786496
 C           -0.62167794       -0.91740382        4.20509439
 C           -0.61305544        0.51556202        3.95931355
 C           -0.95914513       -1.76793541        3.15285803
 C            1.03492935       -3.16263074        3.60155430
 C           -0.23998403       -2.94695172        2.93967223
 C            2.84843741       -1.92489810        2.81153541
 C            2.05344683       -3.10437246        2.56389642
 C            3.05951193        0.41979082        2.27598444
 C            2.85727392       -0.90265060        1.85645570
 C            3.01058569        1.42934087        1.32809877
 C            1.07056992        2.26890226        2.51463794
 C            2.04090987        2.48662959        1.55206616
 C           -0.97077775        0.96643316        2.69256866
 C           -0.23669332        1.98830644        2.07431666
 C           -1.69335350       -1.25043884        2.08625073
 C           -1.75108119        0.13674066        1.90070043
 C           -1.94018208       -2.08185048        0.99589497
 C           -0.04259978       -3.39085953        1.57371251
 C            1.36874789       -3.20977817        1.29632574
 C           -0.93032539       -2.95205448        0.60425254
 C            2.40890050       -1.16742641        0.54430947
 C            1.70440808       -2.34597755        0.26297571
 C            2.93787340        1.08845149       -0.07768873
 C            2.48260578       -0.16633294       -0.43883404
 C            1.63189708        2.97826945        0.26817913
 C            2.37945448        2.24598730       -0.73858804
 C           -0.62294037        2.41277977        0.78860167
 C            0.28074689        3.17931088        0.04077965
 C           -2.28273328        0.64368510        0.72071190
 C           -1.68364590        1.75976632        0.12907647
 C           -2.80955938       -1.62685930        0.01540017
 C           -3.07160612       -0.20090365       -0.04645663
 C           -2.60557560       -2.07381668       -1.35329406
 C           -0.44041276       -2.81432788       -0.68950852
 C            0.87400051       -2.36485751       -0.84901167
 C           -1.35596794       -2.58110520       -1.71008131
 C            1.79175472       -0.31334380       -1.65224189
 C            1.17470431       -1.53512461       -1.91810897
 C            1.76996809        2.10413082       -1.97339130
 C            1.50894221        0.81204487       -2.45688228
 C           -0.05109479        3.53318000       -1.25602662
 C            0.87637165        3.11688253       -2.29403692
 C           -2.04519512        2.14681809       -1.17282922
 C           -1.36683018        3.21447769       -1.75395626
 C           -3.35460323        0.13434082       -1.42628792
 C           -3.25995363       -1.09454978       -2.20357120
 C           -2.86289032        1.31769869       -1.96155864
 C           -2.90845694       -1.02019174       -3.54382345
 C           -0.85706707       -2.33014546       -2.98374453
 C            0.45173283       -1.70879318       -3.08759137
 C           -1.71845556       -1.72586547       -3.98379428
 C            0.74213510        0.66019995       -3.62747550
 C            0.34571079       -0.61404669       -4.02648423
 C           -0.90588202       -0.79700382       -4.74928544
 C            0.13630611        3.03209479       -3.52443769
 C           -1.25551746        3.30683345       -3.19717395
 C            0.16234323        1.77890567       -4.23905072
 C           -2.91480986        1.47041519       -3.35028689
 C           -2.90706992        0.28137470       -4.18637753
 C           -1.72852470        0.35800939       -5.03873862
 C           -2.06128850        2.43129998       -4.01165162
 C           -1.14951510        1.67078870       -4.85294405
