   70
C70 / DATE: 7/ 1/2024 / Origin: Program Fullerene / C70 from database
 C            1.23810009       -0.09326139        4.49615873
 C            2.58238819       -0.34819149        4.01712246
 C            2.61719141       -1.71202870        3.52336028
 C            0.42319886       -1.25985841        4.18226875
 C            1.24925434       -2.20219639        3.46839427
 C           -0.78802846       -0.79642965        3.55177227
 C            0.53044751        1.08048600        4.01646041
 C           -0.79523793        0.65129097        3.61895948
 C            1.19396520        2.01526209        3.23494157
 C            3.13647981        0.50901865        2.98440305
 C            2.51502141        1.71585091        2.69156909
 C            3.39585414       -1.72337487        2.29801662
 C            3.57636424       -0.33841228        1.88683111
 C            3.05491758       -2.65586283        1.33460016
 C            0.79806515       -2.75340564        2.27166641
 C            1.77059035       -3.32713078        1.45981008
 C           -1.23481552       -1.39616167        2.37709045
 C           -0.41562832       -2.31517162        1.69905759
 C           -2.23952969       -0.73230295        1.67207090
 C           -1.47348018        1.32364254        2.61343285
 C           -2.47125644        0.61900633        1.95830146
 C            0.44811653        2.73626008        2.21633355
 C           -0.86488140        2.38317391        1.92916415
 C            2.54505396        2.20677196        1.32658860
 C            1.34750542        3.00403519        1.11360119
 C            3.29332387        0.04206959        0.57139883
 C            2.99560555        1.38134276        0.29889959
 C            3.17304394       -2.28389192       -0.05899367
 C            3.09059371       -0.93922873       -0.41026402
 C            1.41250166       -3.80335871        0.14746170
 C            2.37652444       -3.24262521       -0.78969575
 C           -0.77787011       -2.72722622        0.40225285
 C            0.09279301       -3.50298269       -0.35695509
 C           -2.69105900       -1.26795418        0.46894102
 C           -1.83955679       -2.10071845       -0.25757646
 C           -3.80920996       -0.70606443       -0.14119732
 C           -3.32460999        1.35027014        1.15114548
 C           -4.17998939        0.64513241        0.22292558
 C           -1.41418537        2.79530048        0.71067458
 C           -2.75704277        2.49630332        0.46892525
 C            0.82921314        3.09195186       -0.17313689
 C           -0.55854652        3.09880404       -0.35994443
 C            2.72190858        1.76978086       -1.00609739
 C            1.66396843        2.74206007       -1.23349703
 C            2.59432857       -0.58111473       -1.67079813
 C            2.61702784        0.75973070       -2.04022641
 C            1.63663438       -2.77948349       -1.93958160
 C            0.25267062       -3.18631420       -1.76014754
 C            1.88524258       -1.51043058       -2.44990989
 C           -1.87990854       -2.10766141       -1.66262358
 C           -0.73132403       -2.43339163       -2.38241599
 C           -3.96347131       -0.82044477       -1.57520949
 C           -2.89843475       -1.43884881       -2.33328070
 C           -4.25626214        1.43443157       -0.99393441
 C           -3.28447564        2.51009180       -0.88435719
 C           -4.17470359        0.51684641       -2.11290623
 C           -1.06363702        3.18576586       -1.65773775
 C           -2.42712987        2.77581555       -1.94108150
 C            1.10521866        2.49057988       -2.54933877
 C            1.69321450        1.25554661       -3.04725360
 C           -0.23700768        2.76157319       -2.77438002
 C            1.00264291       -1.06040367       -3.42840223
 C           -0.34399482       -1.60707454       -3.43575815
 C            0.91240336        0.35190987       -3.74967950
 C           -2.54488713       -0.53743310       -3.41693943
 C           -3.17377660        0.74285870       -3.13983449
 C           -2.39789460        1.89878098       -3.10692631
 C           -1.02941871        1.86225384       -3.59856535
 C           -1.24782000       -0.57320409       -3.91237324
 C           -0.48229964        0.65964512       -4.03358083
