   70
C70 / DATE: 7/ 1/2024 / Origin: Program Fullerene / C70 from database
 C            1.35182244        0.07454282        5.04333939
 C            0.56761649       -1.08909725        4.66825899
 C            1.43660632       -1.98229936        3.93933005
 C            2.59081813        0.03021748        4.28468617
 C            2.68493098       -1.27845443        3.68089119
 C            2.62124774        1.19445001        3.41956278
 C            0.62123084        1.25536536        4.61923530
 C            1.50462081        2.04895992        3.79006088
 C           -0.64094811       -0.62362173        4.01490965
 C           -0.64511840        0.82727339        4.05264391
 C           -1.08969168       -1.24568219        2.85309801
 C            0.96957841       -2.50873915        2.67236809
 C           -0.32620027       -2.24536643        2.23786049
 C            2.94084174       -1.36532469        2.25687704
 C            2.04422935       -2.36017629        1.71228373
 C            2.93833679        1.05693012        2.06716853
 C            3.15658785       -0.21596467        1.50856519
 C            2.67317773        2.13768191        1.21991753
 C            0.92883676        2.83679219        2.80483118
 C            1.62797307        3.00049389        1.54178047
 C           -1.14940883        1.51074085        2.94851579
 C           -0.47963424        2.64534436        2.48587128
 C           -2.02081979       -0.56274001        2.07476356
 C           -2.00009548        0.83635304        2.07242392
 C           -2.60747547       -1.23128636        1.00050685
 C           -0.62585805       -2.56158218        0.91675037
 C           -1.91243345       -2.30932291        0.45078653
 C            1.69916279       -2.27017643        0.36840775
 C            0.42039720       -2.66375218       -0.00795575
 C            3.14650708       -0.34862790        0.12315795
 C            2.38317209       -1.37773932       -0.45800467
 C            3.06646047        2.05999678       -0.11027989
 C            3.48181387        0.77181700       -0.61864716
 C            2.20189823        2.64197707       -1.12386912
 C            0.63327830        3.31189531        0.52500512
 C           -0.67465084        3.07315330        1.10781604
 C            0.88279781        2.92898114       -0.79115516
 C           -2.47396289        1.51184789        0.95147035
 C           -1.64010161        2.44644537        0.33847508
 C           -3.54776499       -0.54350308        0.23606266
 C           -3.46690715        0.90440957        0.19653500
 C           -3.89529948       -1.01164255       -1.09455671
 C           -2.25479291       -2.80458541       -0.80226118
 C           -3.30692293       -2.17014674       -1.57787676
 C            0.11883058       -2.74781918       -1.36363166
 C           -1.17485261       -3.13634192       -1.71086094
 C            2.03457621       -1.33077274       -1.81572330
 C            0.93691083       -2.07007328       -2.28125892
 C            3.26462109        0.77625110       -2.04586644
 C            2.49712725        1.97253040       -2.36796555
 C            2.57139329       -0.34257197       -2.64117364
 C            1.39944968        1.55751208       -3.21161363
 C            1.73647629        0.22790351       -3.67959762
 C           -0.16767663        2.41586423       -1.57119608
 C           -1.46338078        2.40303084       -1.04362810
 C            0.08730187        1.80767610       -2.81435353
 C           -3.63819592        1.32176130       -1.18149318
 C           -3.98750789        0.15058521       -1.96350163
 C           -2.52682207        1.98721802       -1.83346118
 C           -0.93367888        1.11567948       -3.47509159
 C           -3.20432229        0.18434849       -3.18555609
 C           -2.25485235        1.28741809       -3.07363742
 C           -2.92697708       -2.24367194       -2.98168308
 C           -1.66216660       -2.95653780       -3.06165161
 C           -2.79717173       -1.01624889       -3.75265853
 C            0.50490714       -1.85521121       -3.59455226
 C            0.71825619       -0.55092568       -4.18880617
 C           -0.60045428        0.04243125       -4.30423185
 C           -0.82211935       -2.26782920       -4.01040224
 C           -1.52552869       -1.06804381       -4.44601419
