   70
C70 / DATE: 7/ 1/2024 / Origin: Program Fullerene / C70 from database
 C            1.21706555        0.04096873        4.43518297
 C            2.48164096       -0.19620310        3.78299923
 C            2.53828208       -1.61537053        3.50037123
 C            0.40742389       -1.16596160        4.28505092
 C            1.17123075       -2.09883544        3.49806239
 C           -0.88509123       -0.74323391        3.79647131
 C            0.39571312        1.13525028        3.96694768
 C           -0.96164686        0.66446844        4.12457022
 C            0.72272641        1.80022540        2.78055382
 C            2.75098576        0.49147630        2.53682076
 C            1.77879828        1.32462703        1.98952698
 C            3.30018664       -1.78074354        2.28437034
 C            3.42858008       -0.45827685        1.67351987
 C            2.94359435       -2.83620115        1.46320516
 C            0.65009692       -2.58387735        2.30077663
 C            1.54070973       -3.24600887        1.45987085
 C           -1.31585812       -1.15085311        2.53200254
 C           -0.51232400       -2.00523243        1.75610982
 C           -2.33134233       -0.40440861        1.92102759
 C           -1.94978952        1.40339964        3.51926724
 C           -2.82607834        0.71553428        2.59418431
 C           -0.27667004        2.58487172        2.19155518
 C           -1.53688961        2.58960776        2.80229646
 C           -0.14725710        2.98408777        0.85268995
 C            1.73815281        1.50245602        0.60892160
 C            0.90331817        2.48234922        0.07991756
 C            3.29364909       -0.33934202        0.29018945
 C            2.48636088        0.67143160       -0.24156421
 C            3.37066204       -2.77115100        0.08607232
 C            3.56765760       -1.45646099       -0.49320411
 C            1.16279436       -3.52258384        0.09105598
 C            2.36421423       -3.44593162       -0.70783263
 C           -0.85872014       -2.24697661        0.41704207
 C            0.00843919       -2.95518098       -0.42544935
 C           -2.58320914       -0.56678699        0.55520061
 C           -1.99812815       -1.63946165       -0.12084494
 C           -3.21137286        0.44570155       -0.18743373
 C           -3.48808091        1.76686949        1.84925929
 C           -2.70898642        2.98358778        2.05177190
 C           -3.66304592        1.60309464        0.42767680
 C           -1.18529235        3.67703371        0.22201986
 C           -2.52452683        3.60932707        0.76593225
 C           -3.32690653        2.86790029       -0.19179267
 C           -1.34248089        3.56138061       -1.21511418
 C           -2.58276996        2.83531555       -1.43877562
 C            0.96373536        2.77320937       -1.28014825
 C           -0.23766607        3.21276190       -1.97094047
 C            2.31932329        0.75892184       -1.62989508
 C            1.67267390        1.86737033       -2.16748190
 C            3.05410976       -1.51625913       -1.84575219
 C            2.28001696       -2.74522238       -1.96807890
 C            2.53948780       -0.36571825       -2.43415807
 C           -0.10935494       -2.82174849       -1.81173975
 C            1.04632650       -2.65258210       -2.59548226
 C           -2.31666484       -1.84081801       -1.46593860
 C           -1.35941752       -2.50549577       -2.33108506
 C           -3.03091887        0.47659309       -1.56400325
 C           -2.52759679        1.64299818       -2.15695662
 C           -2.89119040       -0.73685900       -2.21517812
 C           -0.42355306        2.32011893       -3.10126254
 C            0.86996025        1.71796384       -3.37169192
 C           -1.57718263        1.53749335       -3.17360691
 C            1.75808272       -0.55048282       -3.57503642
 C            1.00465527       -1.78731909       -3.68106404
 C            0.91976739        0.52459250       -4.07294434
 C           -1.46772121       -1.91356808       -3.65385052
 C           -2.33087111       -0.75135497       -3.55003119
 C           -1.58054823        0.40942864       -3.98705629
 C           -0.25651942       -1.50120938       -4.32494211
 C           -0.32474978       -0.06469720       -4.54215688
