   70
C70 / DATE: 7/ 1/2024 / Origin: Program Fullerene / C70 from database
 C            0.99214674       -0.04007219        5.01346091
 C            2.27169203       -0.30360340        4.37988653
 C            2.22342123       -1.65330741        3.84707919
 C            0.16158460       -1.22263874        4.83687590
 C            0.84178963       -2.09638330        3.90411984
 C           -1.17361921       -0.78122747        4.51917925
 C            0.21260954        1.11022160        4.58916392
 C           -1.16230983        0.67393900        4.45222033
 C            0.73374458        1.99072481        3.64898743
 C            2.72794751        0.57006263        3.31419290
 C            2.04307883        1.74715740        3.05177016
 C            2.88686010       -1.64842531        2.55781850
 C            3.15350619       -0.26283734        2.19993902
 C            2.39592248       -2.49301320        1.57811344
 C            0.21943705       -2.49541025        2.71727030
 C            1.03297362       -2.99445071        1.70594553
 C           -1.79195026       -1.25917984        3.29974889
 C           -1.08143424       -2.06477996        2.40548793
 C           -1.91651290        1.05886489        3.26929377
 C           -2.54694434       -0.14546275        2.76627101
 C           -0.13227456        2.53476406        2.61024710
 C           -1.37190923        1.95604052        2.34939157
 C            1.99780221        2.24303272        1.69034102
 C            0.71969350        2.90160257        1.50038091
 C            2.92508877        0.16147089        0.88693239
 C            2.50404034        1.47432912        0.64283846
 C            2.57506607       -2.11913650        0.19175355
 C            2.84194468       -0.79180392       -0.13598254
 C            0.50213783       -3.16044355        0.36802529
 C            1.56143738       -2.82486267       -0.56342839
 C           -1.56345348       -2.15241049        1.08894346
 C           -0.78611448       -2.73636937        0.08015580
 C           -2.88287217       -0.18309576        1.42874701
 C           -2.66753964       -1.36907261        0.73645554
 C           -1.86276202        1.94430986        1.03746011
 C           -2.84497533        1.00789998        0.71370732
 C            0.19907919        2.91291360        0.21984107
 C           -1.13819035        2.56693003        0.00929279
 C            2.14647700        1.83817896       -0.65515522
 C            1.09398435        2.74434918       -0.82371836
 C            2.58390177       -0.37717483       -1.44361301
 C            2.48680038        0.98798358       -1.70377611
 C            1.20865090       -2.31279237       -1.79871544
 C            1.98722296       -1.28602284       -2.32380251
 C           -1.12901331       -2.53876842       -1.26069069
 C           -0.11425293       -2.43283968       -2.22007092
 C           -3.20223238       -1.47101844       -0.54128111
 C           -2.42187135       -2.12830373       -1.57014009
 C           -3.40139333        1.01129894       -0.55553173
 C           -3.77540194       -0.27075392       -1.12761929
 C           -1.62343069        2.53021315       -1.30836464
 C           -2.77157019        1.79746166       -1.59908352
 C            0.64427267        3.03982187       -2.09726702
 C           -0.77294846        2.87347004       -2.36296439
 C            2.29083854        1.42325025       -3.01162177
 C            1.38402709        2.53100837       -3.23410972
 C            1.79929307       -0.93179445       -3.65353964
 C            2.03843343        0.44129880       -4.04950723
 C           -0.42879686       -2.05347419       -3.52322949
 C            0.58738467       -1.37827715       -4.31761530
 C           -2.69290545       -1.45732308       -2.83372426
 C           -3.44160788       -0.25224761       -2.53802393
 C           -2.83767906        1.03327238       -2.83899761
 C           -1.68936238       -1.38435895       -3.78438404
 C           -0.89739079        2.17289888       -3.63299700
 C            0.42149875        2.12822875       -4.24405633
 C            0.89210999        0.89063203       -4.82694334
 C           -0.03329607       -0.21702455       -4.93607780
 C           -1.76423314        1.08417560       -3.72270473
 C           -1.36765144       -0.09164518       -4.37260099
