   70
C70 / DATE: 7/ 1/2024 / Origin: Program Fullerene / C70 from database
 C            1.39682241       -0.00188885        4.27103653
 C            2.57633607       -0.19038615        3.44058710
 C            2.46604993       -1.49184649        2.80849202
 C            0.56025967       -1.18358833        4.13516936
 C            1.18610837       -2.07090160        3.18543175
 C           -0.78752337       -0.74790291        3.86968690
 C            0.55679466        1.16933551        4.06856612
 C           -0.79904965        0.70570055        3.84238932
 C            1.04112613        2.22943617        3.32050130
 C            3.06684470        0.87780620        2.70793241
 C            2.39943397        2.16617078        2.80411519
 C            3.44489710        0.67174823        1.31939636
 C            2.91067014       -1.68603647        1.50473548
 C            3.27567880       -0.57768557        0.72189127
 C            2.46548688       -2.84436088        0.87697412
 C            0.41485771       -2.67583483        2.19491081
 C            1.11201852       -3.29991377        1.16046628
 C           -1.54951620       -1.41781559        2.92196818
 C           -0.90655292       -2.23889677        1.97357204
 C           -2.74751347       -0.80265713        2.58443557
 C           -1.61743976        1.33640186        2.90602431
 C           -2.76859078        0.65233833        2.53188133
 C            0.19628359        2.81576531        2.29202612
 C           -1.06357961        2.27207057        2.02205700
 C            2.40350328        2.76935583        1.48530024
 C            3.05685849        1.85546797        0.57263092
 C            1.05283484        3.18648332        1.17925946
 C            2.52116621        1.68129893       -0.69544714
 C            3.16864841       -0.63633497       -0.67504083
 C            2.84813663        0.52363222       -1.39039559
 C            2.70962810       -3.02608940       -0.53604050
 C            3.10896635       -1.87337734       -1.30960190
 C            0.45912299       -3.50708918       -0.11529321
 C            1.48640666       -3.54425069       -1.12989533
 C           -1.50669621       -2.47408365        0.72253470
 C           -0.71875943       -2.82585175       -0.36345502
 C           -3.50914659       -1.30254588        1.46601580
 C           -2.81666123       -2.09286104        0.47810760
 C           -3.47570688        1.03798955        1.33022688
 C           -4.09420835       -0.16093354        0.78958750
 C           -1.61170784        2.44081791        0.73951106
 C           -2.88733537        1.93458187        0.44841222
 C            0.57041145        2.98827087       -0.10228010
 C            1.38831836        2.40968277       -1.07973530
 C           -0.80226351        2.96520592       -0.27984957
 C            0.88816174        2.25813080       -2.38015526
 C            2.51535997        0.44975316       -2.73846126
 C            1.53101595        1.38434385       -3.25947645
 C            2.43148089       -1.98432337       -2.58591514
 C            1.26255392       -2.82146968       -2.36099261
 C            2.28139540       -0.84616520       -3.35882238
 C           -0.96774028       -2.24780128       -1.61822456
 C           -0.00038256       -2.29910108       -2.63296760
 C           -3.14634461       -1.56148899       -0.83389803
 C           -3.99990054       -0.39788485       -0.63792808
 C           -2.15715890       -1.53201036       -1.82040781
 C           -3.35985473        1.94754281       -0.86268499
 C           -3.81616530        0.69929997       -1.46091815
 C           -1.27958409        3.09369182       -1.57333411
 C           -0.41657941        2.67908108       -2.66660508
 C           -2.62607402        2.67213375       -1.87595457
 C           -2.23517773       -0.57860291       -2.84200913
 C           -3.07255531        0.52606516       -2.69155184
 C           -1.23374738        1.92502488       -3.61202074
 C           -2.57135654        1.83565202       -3.06223055
 C            0.74430750        0.67694342       -4.25296025
 C            1.07823713       -0.73049719       -4.16091264
 C           -0.11099001       -1.43985549       -3.72056439
 C           -0.69669529        0.78873761       -4.19397751
 C           -1.22362507       -0.51362784       -3.79582562
