   70
C70 / DATE: 7/ 1/2024 / Origin: Program Fullerene / C70 from database
 C            1.23870379       -0.07449427        4.49886736
 C            2.50807585       -0.28660081        3.83079122
 C            2.47244145       -1.60813287        3.23125379
 C            0.40600825       -1.24261981        4.25161587
 C            1.12319196       -2.12182833        3.35827511
 C           -0.90095084       -0.78002581        3.85059041
 C            0.45799314        1.10560184        4.17055732
 C           -0.90083130        0.67339436        3.90303357
 C            1.01416981        2.09973997        3.38142294
 C            2.93155814        0.65232128        2.80701357
 C            2.27329986        1.86477081        2.67788731
 C            3.03256567       -1.50784092        1.89752729
 C            3.25911463       -0.10332816        1.60840804
 C            2.48063803       -2.28246502        0.89097838
 C            0.49829015       -2.58618204        2.20612640
 C            1.31231319       -3.00365025        1.15743302
 C           -1.55542223       -1.39942350        2.79059544
 C           -0.83539873       -2.24399410        1.92727142
 C           -2.70123130       -0.76376366        2.31858022
 C           -1.69600354        1.35819538        2.98593854
 C           -2.81198361        0.67327148        2.51883751
 C            0.15012048        2.84968348        2.48835555
 C           -1.13465203        2.38286947        2.20278470
 C            2.14617949        2.45226269        1.35948742
 C            0.98935647        3.32669018        1.40595808
 C            2.90057348        0.38466106        0.34706431
 C            2.36708955        1.67222873        0.22201656
 C            2.72853662       -1.89445467       -0.41807893
 C            2.76449935       -0.52311493       -0.70935671
 C            2.45486234       -2.81951607       -1.41479588
 C            0.71707786       -3.70559818        0.11857360
 C            1.42343866       -3.80090510       -1.14640981
 C           -1.36277519       -2.55087362        0.66390466
 C           -0.67504857       -3.41884367       -0.17446372
 C           -3.17851224       -1.04870917        0.98028788
 C           -2.34034679       -1.72974100        0.11256671
 C           -3.57606878        1.21736471        1.42239810
 C           -3.88187082        0.12369523        0.51353616
 C           -1.76750983        2.81835326        1.02632944
 C           -2.99449883        2.28806655        0.64642576
 C            0.39293356        3.68373654        0.21382296
 C           -1.04650951        3.53856767        0.07639798
 C            1.80773075        2.07779292       -0.99187963
 C            0.98236069        3.20310226       -1.01966366
 C            2.38024040       -0.05610486       -1.97119577
 C            1.85022519        1.22971782       -2.10018242
 C            2.28750445       -2.37067594       -2.77697690
 C            2.26758836       -0.94580803       -3.03824515
 C            0.43966746       -3.70271089       -2.20836167
 C           -0.79713759       -3.23619136       -1.61094392
 C            1.03181126       -2.92313840       -3.27089895
 C           -2.26327614       -1.36517682       -1.24211398
 C           -1.41149202       -2.07966830       -2.09501066
 C           -3.62557336        0.58446818       -0.82987462
 C           -3.23032398        1.98205987       -0.75533646
 C           -2.95425094       -0.24267025       -1.72119666
 C           -1.32973043        3.33781886       -1.34017712
 C           -0.04529250        3.31117696       -2.03491996
 C           -2.36133252        2.47570446       -1.72600754
 C            1.15594041        1.58016460       -3.26312203
 C            0.09110648        2.56804362       -3.19327392
 C            1.22207724       -0.73532155       -4.01914082
 C            0.27572983       -1.81770417       -3.81630787
 C           -0.98823712       -1.51371269       -3.30800165
 C            0.71964200        0.54283000       -4.18354648
 C           -2.54939695        0.33845612       -2.91322802
 C           -2.25119067        1.76431508       -2.92033676
 C           -1.09493028        1.97093720       -3.77026837
 C           -1.57523515       -0.33352288       -3.74826425
 C           -0.71764249        0.68644946       -4.33133433
