   70
C70 / DATE: 7/ 1/2024 / Origin: Program Fullerene / C70 from database
 C            1.05581624        0.02293237        4.63147517
 C            2.29329521       -0.30383705        3.96400265
 C            2.24407994       -1.71548973        3.61977072
 C            0.24277315       -1.18631372        4.66411771
 C            0.86518983       -2.13867673        3.77056020
 C           -1.12311976       -0.79526225        4.41097095
 C            0.22711480        1.07592905        4.08054516
 C           -1.13508237        0.65370230        4.30440507
 C            0.54630929        1.65227743        2.84665881
 C            2.63826453        0.41429991        2.75678575
 C            1.78867839        1.39890251        2.24420848
 C            2.87287678       -1.87629572        2.32048228
 C            3.20989589       -0.54923602        1.83498676
 C            2.31397812       -2.77877907        1.43135914
 C            0.18492707       -2.59649869        2.64065372
 C            0.94133965       -3.21429906        1.65028089
 C           -1.78823634       -1.31235031        3.22939725
 C           -1.07907177       -2.07984702        2.31112246
 C           -2.10736384        0.99408788        3.29840776
 C           -2.62710100       -0.24201677        2.73380486
 C           -0.46861889        2.27557433        2.10254421
 C           -1.81871739        2.01573951        2.41020202
 C           -0.13502901        2.92569170        0.90480514
 C            2.00203584        1.80966945        0.92750919
 C            1.13095037        2.73391932        0.34830543
 C            3.11553176       -0.26569717        0.47938694
 C            2.85738610        1.04856816        0.11976066
 C            2.46514221       -2.53980864        0.00807814
 C            2.82855244       -1.27900575       -0.44340007
 C            0.35258342       -3.46612044        0.35255742
 C            1.37625691       -3.22284693       -0.65347214
 C           -1.54201063       -2.14417031        0.99128048
 C           -0.94307841       -3.03812248        0.09597157
 C           -2.99567173       -0.22794556        1.39033102
 C           -2.48319830       -1.20683155        0.52921935
 C           -2.77336058        2.20160296        1.42571001
 C           -3.37048936        1.00619828        0.85396639
 C           -1.13589760        3.51520524        0.12997502
 C           -2.50801815        3.13307451        0.35946968
 C           -0.97140967        3.59683445       -1.31007009
 C            1.40411805        3.22947335       -0.92707381
 C            0.30470277        3.51380140       -1.83213951
 C            3.05347997        1.39421521       -1.20601381
 C            2.45113435        2.60638149       -1.71148610
 C            2.52771520       -0.92651595       -1.76242912
 C            2.88714507        0.35082753       -2.20064574
 C            0.96413832       -2.79086387       -1.90717517
 C            1.59840145       -1.68357103       -2.49503372
 C           -1.36536209       -3.07317490       -1.22908480
 C           -0.34574180       -3.10300488       -2.26397888
 C           -2.72381002       -1.09204990       -0.84047958
 C           -2.38712593       -2.14831598       -1.67210070
 C           -3.40810807        1.18430456       -0.58566419
 C           -3.01266629        2.54988299       -0.87284622
 C           -2.01700358        2.78044604       -1.90332337
 C           -2.92712797        0.16987889       -1.39609364
 C           -1.65798632        1.72769544       -2.74213624
 C           -2.31590073        0.49889881       -2.60751157
 C            0.51984406        2.72176986       -3.03172857
 C            1.91370814        2.31807595       -3.03083364
 C            2.23942260        0.94067405       -3.36078456
 C           -0.44369724        1.79858660       -3.43494830
 C            1.16215063       -1.21525422       -3.73724542
 C            1.30696771        0.19121486       -4.05820353
 C           -0.03742765        0.72577888       -4.22642299
 C           -0.92459142       -2.54919782       -3.46838642
 C           -2.16250906       -1.88810363       -3.08589819
 C           -2.08204050       -0.51019865       -3.53238172
 C           -0.13946559       -1.61363726       -4.24132587
 C           -0.92986720       -0.40277617       -4.40275082
