   70
C70 / DATE: 7/ 1/2024 / Origin: Program Fullerene / C70 from database
 C            1.25440654        0.05742537        4.39586421
 C            2.50577326       -0.25444129        3.74928702
 C            2.50701410       -1.68326085        3.50238459
 C            0.42013273       -1.13931911        4.34560314
 C            1.12638575       -2.12299405        3.56077187
 C           -0.89314188       -0.71666818        3.91366394
 C            0.44983578        1.13783933        3.86479966
 C           -0.91744788        0.72155808        4.08370557
 C            0.77453201        1.71877195        2.63444246
 C            2.80836588        0.39019197        2.48941777
 C            1.87943589        1.24960783        1.90941889
 C            3.23052479       -1.90911895        2.27065706
 C            3.45306654       -0.60413545        1.65123014
 C            2.79723123       -2.94688769        1.46267046
 C            0.54415768       -2.63161326        2.40072342
 C            1.38038939       -3.30094236        1.50389360
 C           -1.44432241       -1.25004769        2.75053347
 C           -0.67826865       -2.11002445        1.94195370
 C           -2.55776349       -0.59828202        2.20927672
 C           -1.90622470        1.42467457        3.43115126
 C           -2.89488211        0.67108307        2.68313974
 C           -0.22360604        2.45072500        1.97287117
 C           -1.49590291        2.50097903        2.55083930
 C           -0.04916934        2.81889645        0.62720319
 C            1.93129719        1.45886198        0.53806552
 C            1.13460244        2.44646024       -0.02237569
 C            3.35380804       -0.48609991        0.26429867
 C            2.67698201        0.60503927       -0.28611373
 C            3.19506938       -2.91748492        0.07369130
 C            3.51194175       -1.62888981       -0.51256817
 C            0.94009249       -3.51736368        0.13690640
 C            2.11297519       -3.49101272       -0.70300099
 C           -1.11179310       -2.41104176        0.64461291
 C           -0.20893568       -2.87765383       -0.30396805
 C           -3.10733269       -1.05229548        1.01440924
 C           -2.37129365       -2.02014166        0.22739922
 C           -3.73864848       -0.11490804        0.09232498
 C           -3.52482696        1.62579276        1.78944740
 C           -2.64578135        2.78504756        1.72256547
 C           -3.83618427        1.22218176        0.43169795
 C           -1.13509509        3.32153740       -0.11624239
 C           -2.42547226        3.08788926        0.33306535
 C           -3.27605011        2.21914399       -0.46349064
 C           -1.00650917        3.47710687       -1.48916189
 C            1.37310357        2.82620670       -1.33641555
 C            0.30799252        3.45089930       -2.08381453
 C            2.56085999        0.71149552       -1.67686901
 C            2.05059910        1.89046731       -2.21763860
 C            2.97786889       -1.64307148       -1.85920899
 C            2.03610885       -2.75065708       -1.93813740
 C            2.61239887       -0.44471011       -2.46416202
 C           -0.33808611       -2.48922301       -1.64987175
 C            0.79170252       -2.48716942       -2.49175625
 C           -2.57891947       -1.71363811       -1.17545077
 C           -3.32737185       -0.46837119       -1.25130324
 C           -1.55265212       -1.93151290       -2.09043176
 C           -2.82767584        1.85604179       -1.73422640
 C           -1.90462667        2.71118498       -2.34084979
 C           -2.91291723        0.51716965       -2.14764445
 C            0.20365617        2.78044304       -3.36780485
 C            1.31615552        1.85224323       -3.47384090
 C           -1.15739483        2.28305638       -3.50707321
 C            1.77027697       -0.54733087       -3.56984506
 C            0.81204901       -1.63996284       -3.58969329
 C            1.11622570        0.63246703       -4.10130238
 C           -1.60353497       -1.21426486       -3.28433268
 C           -2.23861777        0.09606161       -3.29218985
 C           -1.36626024        1.01017483       -4.01119176
 C           -0.43048343       -1.14152815       -4.12166654
 C           -0.22982502        0.24734210       -4.50034421
