   70
C70 / DATE: 7/ 1/2024 / Origin: Program Fullerene / C70 from database
 C            1.15274556       -0.04949826        4.84331742
 C            2.46752406       -0.36431113        4.32680586
 C            2.36057520       -1.62435372        3.60059267
 C            0.31395103       -1.21385739        4.61654842
 C            0.96275136       -2.00590812        3.59055676
 C           -1.02426677       -0.72807077        4.36784447
 C            0.43694670        1.09230402        4.29728197
 C           -0.96058317        0.72605132        4.32135326
 C            0.94287771        1.76106423        3.17936772
 C            3.10171876        0.59311443        3.44552103
 C            2.30289974        1.66789692        2.87737239
 C            3.03952025       -1.46071089        2.32933998
 C            3.66214263       -0.15332307        2.33569131
 C            2.40384314       -1.86384527        1.15985050
 C            0.33305637       -2.19180407        2.36029103
 C            1.11628442       -2.39817100        1.21879785
 C           -1.70350435       -1.15407952        3.16116572
 C           -1.03375797       -1.92132269        2.21405910
 C           -1.80080705        1.15536444        3.22645595
 C           -2.46266330       -0.01645987        2.69308222
 C            0.06994233        2.29974232        2.22225249
 C           -1.31484321        2.07748771        2.31237159
 C            0.60509685        2.81406301        1.03319812
 C            2.73381428        1.83294520        1.49932000
 C            3.51868299        0.66368002        1.14681433
 C            1.82193208        2.32046387        0.56865857
 C            2.82402484       -1.30124390       -0.04127690
 C            3.22175730        0.04028952       -0.05399666
 C            2.35884922       -1.85973294       -1.22885560
 C            0.48894934       -2.73789791        0.02021726
 C            1.22214377       -2.67504865       -1.17035848
 C           -1.59312435       -2.01174227        0.94389729
 C           -0.90557771       -2.72242857       -0.02734183
 C           -2.82990790        0.02059858        1.35577142
 C           -2.58106606       -1.09598414        0.55367145
 C           -2.09745233        2.30515216        1.18418362
 C           -2.93062044        1.26507875        0.74172002
 C           -0.23744747        3.44753743        0.12849489
 C           -1.66405485        3.28166315        0.29762282
 C            0.04179736        3.30635271       -1.28946525
 C            1.93107714        1.91943730       -0.77084972
 C            2.76867691        0.84473848       -1.09061849
 C            0.97492054        2.35785203       -1.69304319
 C            2.65824233       -1.17745904       -2.40639085
 C            2.70266405        0.26854583       -2.35108419
 C            2.01331325       -1.54721349       -3.64849771
 C            0.65318860       -3.17322805       -2.34239201
 C            1.03305349       -2.60915400       -3.62483183
 C           -1.55980906       -2.99847453       -1.21673193
 C           -0.78081493       -3.37557046       -2.38097317
 C           -3.03711389       -1.09061762       -0.77274165
 C           -2.60287089       -2.08691667       -1.64868937
 C           -3.52060410        1.31080858       -0.51525957
 C           -3.52031671        0.10194890       -1.32180156
 C           -2.28490574        3.41318147       -1.00449248
 C           -1.22233215        3.39563625       -1.99758862
 C           -3.27371667        2.43535652       -1.39609452
 C           -3.10817797        0.47214920       -2.66916455
 C           -1.54351476        2.37244398       -2.97442879
 C           -2.88203372        1.90376273       -2.69003307
 C            0.73384903        1.61172378       -2.84874272
 C            1.72778662        0.75868698       -3.30418742
 C            1.36625024       -0.35198578       -4.17011649
 C           -0.57804770        1.42797067       -3.29646211
 C           -0.17540437       -2.10061654       -4.25262866
 C           -1.30176606       -2.63726091       -3.52122143
 C           -2.29950380       -1.71494190       -3.01975955
 C           -2.21265609       -0.36180300       -3.32667448
 C           -0.03917589       -0.65870194       -4.35526056
 C           -0.98440807        0.16864556       -3.75143410
