   70
C70 / DATE: 7/ 1/2024 / Origin: Program Fullerene / C70 from database
 C            1.58637452       -0.39128974        5.11490438
 C            0.70083135       -1.52726828        4.95236005
 C            1.21251028       -2.33433769        3.85796502
 C            2.63943028       -0.50617064        4.12085408
 C            2.35965211       -1.66019123        3.29072054
 C            2.75804423        0.77926062        3.46555732
 C            0.82894531        0.80809683        4.80170568
 C            1.62679915        1.59797376        3.88740459
 C           -0.59776045       -1.02164631        4.54083572
 C           -0.49517848        0.41101101        4.36816347
 C            0.10269295       -2.61827944        2.97861551
 C           -1.02299401       -1.80381594        3.40231563
 C            0.33469018       -2.69938348        1.61230650
 C            2.41619982       -1.49905996        1.90907277
 C            1.53873814       -2.22331117        1.08594462
 C            3.10997865        0.81049493        2.11977603
 C            3.07957528       -0.38554303        1.38890193
 C            2.89161760        2.01100710        1.45122247
 C            0.97617182        2.35116607        2.91434260
 C            1.76122098        2.82093909        1.86558039
 C           -0.99342872        0.97099495        3.19578785
 C           -0.38795719        2.12358386        2.68799664
 C           -1.75904057       -1.18338913        2.39993505
 C           -1.83269011        0.21159711        2.36569099
 C           -0.77804252       -2.64908057        0.79410124
 C           -1.85648114       -1.85712764        1.19316157
 C           -0.60402291       -2.89181993       -0.55515876
 C            1.66663165       -2.11656992       -0.30879331
 C            0.59222531       -2.46598821       -1.14361195
 C            3.34362674       -0.35918466        0.02562154
 C            2.70127853       -1.34689750       -0.82621252
 C            2.97345019        2.05942972        0.00441188
 C            3.32861964        0.91151155       -0.68214123
 C            1.13448499        3.36148169        0.67328330
 C            1.85697817        2.85560341       -0.48250512
 C           -1.03203718        2.80604172        1.66377050
 C           -0.24394465        3.44820093        0.62228977
 C           -2.41509467        0.82232247        1.24716760
 C           -2.17096451        2.17662559        1.01964269
 C           -2.70383337       -1.34674628        0.21885780
 C           -2.93427959        0.03266858        0.20870633
 C           -1.75810554       -2.97216000       -1.31644913
 C           -2.85194919       -2.09520339       -0.94762783
 C           -1.65474807       -2.99317173       -2.75440445
 C            0.62522759       -2.13356190       -2.51157941
 C           -0.41148632       -2.55750574       -3.34940269
 C            2.55860337       -0.75558542       -2.14067513
 C            2.75711331        0.67629021       -1.99293699
 C            1.54014245       -1.18128990       -2.98045245
 C            1.15967290        2.43423554       -1.61544738
 C            1.78004851        1.53615832       -2.49012299
 C           -0.91705427        3.21937980       -0.64177535
 C           -2.23625759        2.70380696       -0.33170180
 C           -0.21745028        2.68111341       -1.72141301
 C           -3.39703635        0.65449253       -0.95376616
 C           -2.89865588        1.97316624       -1.29993665
 C           -3.34477032       -1.47501177       -2.16156474
 C           -2.72217112       -2.15794618       -3.28371456
 C           -3.50910318       -0.09891953       -2.19332412
 C           -0.76948400       -1.76425213       -4.51287079
 C           -2.16449620       -1.37620372       -4.36923439
 C            1.14576230       -0.28292581       -3.96997280
 C            1.10859434        1.12928820       -3.63554190
 C           -0.00980863       -0.56747411       -4.79206052
 C           -0.94200899        2.14087392       -2.78535854
 C           -2.30135665        1.86571524       -2.61985424
 C           -2.88734062        0.69370161       -3.24981846
 C           -2.21404685        0.07395519       -4.29710425
 C           -0.25337732        1.57258786       -3.84949735
 C           -0.90747521        0.57353608       -4.68294310
