   70
C70 / DATE: 7/ 1/2024 / Origin: Program Fullerene / C70 from database
 C            1.12179117       -0.14971826        4.91687419
 C            2.45610885       -0.50842425        4.48728096
 C            2.35916529       -1.77754774        3.77414773
 C            0.28711931       -1.32334172        4.73649218
 C            0.96288755       -2.18044467        3.78226069
 C           -1.03847143       -0.84859805        4.41328635
 C            0.44459006        0.95248442        4.25084084
 C           -0.95247399        0.59284723        4.21137892
 C            1.03307741        1.54887847        3.13212201
 C            3.16022579        0.41674096        3.62675374
 C            2.41687251        1.50334068        3.00644995
 C            3.03139266       -1.61793144        2.49403683
 C            3.74088889       -0.36250755        2.54882540
 C            2.34098671       -1.94050367        1.32756787
 C            0.34686290       -2.47394186        2.56615344
 C            1.14991960       -2.65419461        1.43892949
 C           -1.70517522       -1.39533490        3.24855118
 C           -1.03347630       -2.27644413        2.40416967
 C           -1.70795647        0.90260113        3.02127822
 C           -2.42116654       -0.29891123        2.63909017
 C            0.25202953        1.90968645        2.01849383
 C           -1.12684386        1.65568066        2.01010612
 C            0.86924533        2.39923492        0.84749214
 C            3.00451600        1.69353425        1.70361892
 C            3.71427423        0.46718641        1.37073864
 C            2.25940535        2.28194822        0.69229577
 C            2.63639582       -1.27600546        0.12373337
 C            3.42481856       -0.11345101        0.14355044
 C            1.92330191       -1.62468343       -1.03673385
 C            0.58067061       -3.17962521        0.29354820
 C            1.06101042       -2.71348209       -0.99392297
 C           -1.60511052       -2.52321993        1.15257746
 C           -0.86311141       -3.24449787        0.22162163
 C           -2.78053072       -0.43277924        1.30906674
 C           -2.63056685       -1.67779456        0.70680526
 C           -1.80106439        1.70027704        0.80004562
 C           -2.72725585        0.69595217        0.49693923
 C            0.07682053        2.72677779       -0.27341490
 C           -1.30359276        2.49982451       -0.21265643
 C            0.69332270        2.97952149       -1.51274502
 C            2.76194602        2.09396549       -0.58558808
 C            3.30653597        0.78412486       -0.90437208
 C            1.98839242        2.52858506       -1.71826511
 C            1.86341392       -0.74981633       -2.12712358
 C            2.69284117        0.36223862       -2.14099965
 C            2.23777054        1.57620140       -2.78798154
 C            0.80357089       -0.82285294       -3.04391400
 C           -0.04807777       -2.78346266       -1.92657884
 C           -1.22829873       -3.20384779       -1.18075710
 C           -0.17291367       -1.81606910       -2.91957086
 C           -3.15397933       -1.83597190       -0.57326009
 C           -2.46330822       -2.68516209       -1.53057663
 C           -3.25936455        0.61073820       -0.78953422
 C           -3.60423059       -0.64808205       -1.28572115
 C           -2.10854609        2.70366556       -1.32511182
 C           -3.07871946        1.67872103       -1.66884877
 C           -0.07795020        3.20794961       -2.65020852
 C           -1.51860949        3.19170833       -2.54818365
 C            1.29964807        1.47440206       -3.79762619
 C            0.63075161        0.19715905       -3.98622016
 C            0.28315391        2.50836857       -3.87418630
 C           -2.97775753        1.43378058       -3.10160850
 C           -2.04303308        2.39790141       -3.65016955
 C           -0.69729210        0.47416834       -4.50953139
 C           -0.91833619        1.90866920       -4.42280484
 C           -1.41189635       -1.65040012       -3.53952441
 C           -2.60824943       -2.08115748       -2.84182951
 C           -3.46942196       -0.91966030       -2.70397629
 C           -1.73230148       -0.39278625       -4.18970026
 C           -2.94664165        0.12378771       -3.56387697
