   70
C70 / DATE: 7/ 1/2024 / Origin: Program Fullerene / C70 from database
 C            1.23380539        0.32241419        4.94247423
 C            2.43515910        0.05042394        4.18109131
 C            2.45350237       -1.37320817        3.90333774
 C            0.41036333       -0.87990647        4.91730232
 C            1.10951006       -1.87641270        4.12460071
 C           -0.93687179       -0.49362056        4.53976923
 C            0.40266854        1.43194159        4.53335127
 C           -0.96837159        0.95226901        4.45119334
 C            0.69528722        2.11100747        3.28123222
 C            2.64574850        0.73643416        2.91463145
 C            1.68985661        1.62871344        2.43132349
 C            3.04576189       -1.55168150        2.59413747
 C            3.22536359       -0.23086757        2.00456205
 C            2.54895756       -2.56308102        1.78805484
 C            0.44796708       -2.51812525        3.07648674
 C            1.19782816       -3.05498976        2.03021411
 C           -1.60828350       -1.23796386        3.58035981
 C           -0.92420603       -2.33213772        2.90448524
 C           -2.44352194       -0.56506320        2.59399909
 C           -1.57195226        1.57409147        3.28579656
 C           -0.58347040        2.47008588        2.71348910
 C           -2.35415307        0.81755572        2.41143938
 C           -0.66783073        2.70861665        1.35637843
 C            1.54207801        1.79691150        1.04957694
 C            0.46483287        2.54079359        0.55793403
 C            3.01952763       -0.07978909        0.63781646
 C            2.31371757        1.03511664        0.16762591
 C            2.70893087       -2.43301711        0.35417246
 C            3.11711824       -1.21173032       -0.17078191
 C            0.57122615       -3.28331011        0.73483606
 C            1.59446462       -3.11470052       -0.27941181
 C           -1.51409561       -2.46801565        1.57876853
 C           -2.51630189       -1.43015077        1.42784376
 C           -0.70747713       -2.79552064        0.49491974
 C           -2.70003019       -0.85024957        0.18379743
 C           -2.59906266        1.34384254        1.13817547
 C           -1.90090041        2.49700423        0.76887531
 C           -3.06380446        0.48874403        0.13428796
 C           -2.08324539        3.02194750       -0.49648393
 C            0.32721027        2.73815191       -0.82069015
 C           -0.88986975        3.24089365       -1.29343148
 C            2.16766885        1.21305362       -1.20977075
 C            1.19549441        2.08948134       -1.70394681
 C            3.02099023       -1.04991788       -1.54318976
 C            2.73996342        0.27112843       -2.06158659
 C            1.22544773       -2.70253877       -1.55256562
 C            2.16152155       -1.96555204       -2.27243228
 C           -1.02353749       -2.30655851       -0.77556160
 C           -2.10622271       -1.43113943       -0.93695678
 C           -0.12976305       -2.51565176       -1.83096353
 C           -2.41243640       -0.92373828       -2.20162251
 C           -3.42026190        1.02831406       -1.09477166
 C           -3.07448572        2.41040177       -1.35257297
 C           -3.12727956        0.27122244       -2.30223828
 C           -1.26217387        3.07964231       -2.68810736
 C           -2.60235931        2.51511135       -2.71983259
 C           -2.80535721        1.22666363       -3.35636800
 C            0.97127091        2.16797781       -3.08297150
 C           -0.32120444        2.60412945       -3.58556895
 C            2.20584310        0.08639616       -3.39806668
 C            1.75607540       -1.30014664       -3.49515983
 C            1.43990355        1.09997867       -3.95120117
 C           -0.50341251       -2.15095880       -3.12116133
 C           -1.73449930       -1.40900030       -3.31476399
 C            0.49882910       -1.58314740       -4.01082852
 C           -1.93723709        0.84888168       -4.37081836
 C           -0.74608978        1.65446103       -4.60406423
 C            0.36256660        0.75532699       -4.86417910
 C           -1.55360255       -0.54658619       -4.47106353
 C           -0.15308883       -0.60065230       -4.85520664
