   70
C70 / DATE: 7/ 1/2024 / Origin: Program Fullerene / C70 from database
 C            1.66580552        0.00598282        4.65628198
 C            0.83875259       -1.18233037        4.70269287
 C            1.44287113       -2.17446829        3.83065535
 C            2.64415834       -0.17769608        3.59539623
 C            2.44829598       -1.49254725        3.02757836
 C            2.55388723        0.96424956        2.71393190
 C            0.81253245        1.11592203        4.27431146
 C            1.46812883        1.80221246        3.18834576
 C           -0.53796622       -0.78225417        4.45561182
 C           -0.52335091        0.60983642        4.03615662
 C           -1.37177785       -1.67170055        3.79801851
 C            0.60979476       -3.09665071        3.21328583
 C           -0.82915745       -2.95467839        3.37505061
 C            0.85712797       -3.45116181        1.82625055
 C            2.41704615       -1.63209317        1.64230205
 C            1.84795544       -2.78920424        1.10609016
 C            2.66180199        0.77650970        1.33643569
 C            2.67255330       -0.52266938        0.81262375
 C            2.23842988        1.82243260        0.51467726
 C            0.68718057        2.39852833        2.21719759
 C            1.33577562        2.74974760        1.04962973
 C           -1.17460083        0.99120399        2.86101506
 C           -0.67109532        2.06847911        2.12117256
 C           -2.22403005       -1.18356116        2.72731791
 C           -2.10510965        0.13219155        2.27021005
 C           -1.46038829       -3.31518048        2.11724282
 C           -0.42577845       -3.68349053        1.17983157
 C           -2.35295749       -2.24650512        1.74621858
 C           -0.55756064       -3.31674554       -0.15676032
 C            1.85411283       -2.96569779       -0.26821357
 C            0.60321124       -3.33199041       -0.91539702
 C            2.68762495       -0.69126679       -0.57610794
 C            2.48319722       -1.96393264       -1.09910699
 C            2.36106314        1.68849975       -0.86939188
 C            2.57220461        0.42146490       -1.41885976
 C            1.97963522        2.74708959       -1.69302840
 C            0.65729994        3.61213162        0.21196406
 C            1.11808380        3.77285194       -1.14637813
 C           -1.38007486        2.52014072        1.00050614
 C           -0.78786657        3.50356771        0.19893004
 C           -2.59691419        0.43552760        0.99722884
 C           -2.38736433        1.71201260        0.46666509
 C           -2.43543113       -1.87571113        0.41650215
 C           -1.60884278       -2.47229835       -0.54847799
 C           -2.95297286       -0.62178537        0.15157020
 C           -1.65514689       -1.97581379       -1.86387638
 C            0.60396988       -2.74174249       -2.23507093
 C            1.90303651       -2.11008487       -2.41952563
 C           -0.53920418       -2.10260502       -2.70348577
 C            2.44317296        0.23276043       -2.79944308
 C            2.00824719       -1.05696681       -3.30900496
 C            1.51126075        2.47821298       -3.03870709
 C            1.81446149        1.25856643       -3.61709581
 C           -0.05202645        3.87970793       -2.00122635
 C           -1.23124512        3.70712000       -1.17107737
 C            0.14986703        2.99149520       -3.13193235
 C           -2.97297313        2.04912050       -0.75371574
 C           -2.28315541        2.95143749       -1.65697296
 C           -3.36092798       -0.37085243       -1.14392093
 C           -2.68294267       -1.08925382       -2.20683754
 C           -3.55415011        0.99776686       -1.56375753
 C           -0.88531277        2.14545893       -3.53015820
 C           -2.14305541        2.27053651       -2.93802185
 C           -2.52107275       -0.17104404       -3.32265165
 C           -3.03359755        1.12461931       -2.91443192
 C           -0.41880989       -1.30047585       -3.83800505
 C            0.89974564       -0.81816400       -4.21458675
 C            0.80587751        0.61359825       -4.43678515
 C           -1.35701453       -0.21899066       -4.06845486
 C           -0.58429493        1.00063008       -4.26843128
