   70
C70 / DATE: 7/ 1/2024 / Origin: Program Fullerene / C70 from database
 C            1.43348076       -0.09970435        5.21038404
 C            0.56691235       -1.26192691        5.24506566
 C            1.12323919       -2.26189561        4.34780946
 C            2.53185467       -0.39014358        4.30390336
 C            2.37385533       -1.74971572        3.82212211
 C            2.60157432        0.68874618        3.33143221
 C            0.67594245        0.99950431        4.63719049
 C            1.47344661        1.57008554        3.57801153
 C           -0.72178812       -0.86563231        4.70674203
 C           -0.64799915        0.52221435        4.29588822
 C            0.08017119       -2.64975156        3.41103637
 C           -1.08820867       -1.83775959        3.70353381
 C            0.40922956       -2.87704184        2.06938996
 C            2.68151923       -2.01167743        2.49722458
 C            1.74363025       -2.77472258        1.68332311
 C            2.92689893        0.39355979        2.00431090
 C            3.18132268       -0.93226655        1.65822657
 C            2.52353849        1.28824750        1.00332035
 C            0.82849670        2.08268968        2.46887482
 C            1.60517142        2.28287683        1.34371054
 C           -1.17708230        0.86635836        3.05122577
 C           -0.53942114        1.84003899        2.28183686
 C           -1.83249616       -1.41206641        2.62227787
 C           -2.01273252       -0.04106656        2.40411548
 C           -0.59780540       -2.74551030        1.10000098
 C           -1.82956668       -2.23483441        1.51266804
 C           -0.26611269       -2.71684808       -0.26582176
 C            2.06254097       -2.48057484        0.30185030
 C            2.97955805       -1.35532143        0.28844108
 C            1.06137470       -2.50645638       -0.65772255
 C            2.68914003        0.94358057       -0.34564825
 C            2.80650832       -0.40298790       -0.70148279
 C            2.35603182        1.87341872       -1.33896724
 C            1.05931927        3.07027230        0.35244363
 C            1.58477749        2.97956063       -0.99096166
 C           -1.11445635        2.22354823        1.06338457
 C           -0.38836849        3.10069507        0.26055112
 C           -2.63767162        0.34321097        1.21549993
 C           -2.10820459        1.42037945        0.48222607
 C           -2.81409540       -1.99260547        0.57792733
 C           -3.35468162       -0.64911335        0.55209651
 C           -1.28780548       -2.60823093       -1.22160641
 C           -2.59235200       -2.38414818       -0.79364877
 C           -0.96189626       -2.37752999       -2.56037404
 C            1.31853993       -1.87276918       -1.87184138
 C            2.24645109       -0.82527279       -1.90144823
 C            0.40283321       -2.02935706       -2.90187230
 C            2.39389203        1.47182721       -2.67466570
 C            2.27932235        0.05705417       -2.97165101
 C            1.61336205        2.19627458       -3.66630616
 C            0.51895408        3.42844642       -1.87056822
 C           -0.72886383        3.25902900       -1.13701158
 C            0.56700291        3.09513343       -3.21542819
 C           -2.46918866        1.61108016       -0.86886550
 C           -1.74442755        2.48841880       -1.68308916
 C           -3.85171278       -0.41017355       -0.77942927
 C           -3.48190604       -1.56038121       -1.59359044
 C           -3.40427553        0.77110367       -1.47339722
 C           -1.84756224       -1.58291374       -3.40561807
 C           -3.01682141       -1.05904177       -2.87043124
 C           -3.21354075        0.38319739       -2.85874113
 C            0.37100539       -1.08072546       -4.00120859
 C            1.35235230       -0.10165789       -4.07744921
 C            1.01564687        1.22333561       -4.56733049
 C           -1.02353269       -0.74896809       -4.26563024
 C           -0.66521361        2.71288126       -3.88135027
 C           -1.82349283        2.37125921       -3.07199600
 C           -2.41681749        1.18454048       -3.65926132
 C           -0.37952126        1.57677563       -4.74464747
 C           -1.39927573        0.57144849       -4.49898381
