   70
C70 / DATE: 7/ 1/2024 / Origin: Program Fullerene / C70 from database
 C            1.30113993       -0.12637246        5.21078321
 C            0.50276568       -1.26579680        4.78443486
 C            1.35362130       -2.11077611        3.98815612
 C            2.50357104       -0.10821225        4.39717306
 C            2.61075681       -1.40039316        3.77137201
 C            2.45296031        1.06431456        3.54597618
 C            0.54402805        1.07215766        4.90423444
 C            1.29690737        1.85620552        3.94228984
 C           -0.71157818       -0.75178438        4.18480113
 C           -0.79041245        0.65720132        4.53701284
 C           -1.09718434       -1.15436028        2.89781500
 C            0.88120780       -2.54450015        2.68723721
 C           -0.33033379       -2.07782082        2.17101682
 C            2.88128117       -1.45531614        2.35109784
 C            2.03733244       -2.50708087        1.82575013
 C            2.76538502        0.96850082        2.18850229
 C            3.00948448       -0.28302229        1.59557350
 C            2.40908692        2.04532096        1.38743768
 C            0.59927281        2.55894555        2.95952482
 C            1.26010383        2.85145250        1.76883179
 C           -1.50408866        1.48663144        3.69669028
 C           -0.79795233        2.54700376        2.98127506
 C           -2.06003298       -0.39634614        2.23380066
 C           -2.37870931        0.86998507        2.72717433
 C           -2.42848040       -0.71998645        0.92732736
 C           -0.53818125       -2.21550937        0.78974729
 C           -1.63041417       -1.59295988        0.17898941
 C            1.82107220       -2.49923425        0.46775307
 C            0.52137426       -2.67104601       -0.00175707
 C            2.94404101       -0.42792221        0.20023202
 C            2.66461585       -1.70650184       -0.28923112
 C            2.39711104        1.90453094       -0.05256258
 C            2.67790600        0.67648819       -0.62218110
 C            0.50375767        3.14407076        0.56000039
 C            1.27660619        2.66420202       -0.57160327
 C           -1.55090336        2.79883101        1.75680853
 C           -2.71011717        1.91947456        1.79271199
 C           -0.87787657        2.99055404        0.54925192
 C           -3.31152845        0.13264796        0.27310044
 C           -3.28578811        1.54788285        0.59851216
 C           -3.45169387        0.04794943       -1.16232849
 C           -1.80130483       -1.70027197       -1.21319167
 C           -2.82959968       -0.98329604       -1.85146523
 C            0.36618701       -2.77123661       -1.38306247
 C           -0.84980183       -2.40497014       -1.96947202
 C            2.62684423       -1.91314957       -1.65402363
 C            1.53757825       -2.72839166       -2.14568844
 C            2.28689545        0.45918343       -1.94447322
 C            2.64641747       -0.75274108       -2.51236527
 C            0.60304091        2.18175834       -1.68580109
 C            1.18885135        1.17168091       -2.45761183
 C           -1.52199364        2.67465484       -0.65215197
 C           -2.83468918        2.21119679       -0.60123709
 C           -3.33624896        1.40354012       -1.68838065
 C           -0.76227232        2.43472208       -1.80468029
 C           -2.76456811        1.56440659       -2.93534214
 C           -1.40558580        2.08827993       -2.99132816
 C           -2.85982470       -0.89405568       -3.24051051
 C           -2.82567342        0.43079511       -3.83456759
 C           -0.99929526       -2.52865918       -3.35421452
 C           -1.99967754       -1.73799195       -4.03314895
 C            1.47294497       -2.47719467       -3.56671919
 C            2.06273710       -1.15906591       -3.77369049
 C            0.17731653       -2.48102268       -4.20096260
 C            0.57032265        0.78036423       -3.65560737
 C           -0.67689449        1.31502214       -3.98431428
 C           -1.65240811        0.48772862       -4.67779513
 C           -1.30805512       -0.88204703       -4.99412900
 C            1.03974714       -0.32840526       -4.36322625
 C            0.08889617       -1.25024275       -4.96357104
