   70
C70 / DATE: 7/ 1/2024 / Origin: Program Fullerene / C70 from database
 C            1.58334888       -0.05812578        4.61521335
 C            0.77975661       -1.24069370        4.37398227
 C            1.33208497       -1.94078147        3.22687880
 C            2.65179609       -0.04487173        3.63408000
 C            2.51072959       -1.21148845        2.78986404
 C            2.63991948        1.25004187        2.98991305
 C            0.74076600        1.09887460        4.36158786
 C            1.38854565        1.90249066        3.35178417
 C           -0.60342671       -0.81787094        4.31046527
 C           -0.59747036        0.62162044        4.09899298
 C           -1.47065866       -1.57689119        3.54319234
 C            0.45415445       -2.44510970        2.26830647
 C           -0.90852413       -2.50614446        2.56967741
 C            0.85703588       -2.49629304        0.93135177
 C            2.72619460       -1.05499040        1.42888606
 C            2.06059260       -1.89758038        0.54304183
 C            3.04601312        1.33193559        1.66279625
 C            3.26401491        0.14378924        0.95272184
 C            2.64063293        2.46211978        0.96165814
 C            0.62670939        2.46980495        2.33392483
 C            1.33584378        3.02305905        1.27141606
 C           -1.30885358        1.13803886        3.01801079
 C           -0.69011506        2.02604433        2.11877086
 C           -2.56694448       -0.90162105        2.87678015
 C           -2.46686387        0.46715278        2.62591951
 C           -1.87634905       -2.63865841        1.48927959
 C           -3.00894858       -1.79004015        1.81630353
 C           -0.05821970       -2.89628714       -0.04217453
 C           -1.41836573       -2.69726802        0.17837454
 C            0.38657439       -3.12341741       -1.33538327
 C            2.43817845       -1.90271486       -0.79913407
 C            1.71627329       -2.67463999       -1.70389682
 C            3.62452150        0.21273205       -0.38985053
 C            3.27044941       -0.88831325       -1.27202654
 C            2.83184508        2.52861363       -0.47536230
 C            3.41676758        1.45093253       -1.12484283
 C            0.66525466        3.28442350        0.01440161
 C            1.65316836        3.16332649       -1.04384867
 C           -1.34926401        2.36842808        0.92947217
 C           -0.61489445        2.78599344       -0.17889309
 C           -3.26616735        1.02621760        1.63857810
 C           -2.68272450        2.02033332        0.75857076
 C           -3.77582348       -1.26636833        0.78956875
 C           -4.09681101        0.14863939        0.83139130
 C           -2.23218541       -2.24747260       -0.86771630
 C           -3.43303693       -1.59448223       -0.58457866
 C           -0.50755931       -2.82481543       -2.43845534
 C           -1.71917415       -2.19616650       -2.16629753
 C            1.68183423       -2.28799600       -3.10373206
 C            0.30248961       -2.36400134       -3.55401607
 C            3.06201387       -0.33760540       -2.60384610
 C            2.99923190        1.10896718       -2.47562408
 C            2.21135223       -0.99241415       -3.48531147
 C            1.23027307        2.81658392       -2.31780352
 C            1.96157317        1.81300701       -3.07733769
 C           -1.06191492        2.49205902       -1.47241287
 C           -0.18612088        2.60091489       -2.55220639
 C           -3.18081543        1.78213786       -0.58568376
 C           -4.08729834        0.64868830       -0.53015422
 C           -3.84345916       -0.47502864       -1.41517103
 C           -2.30316296        1.88174453       -1.66041669
 C           -2.20590677       -1.23836359       -3.05777338
 C           -3.14719564       -0.23791237       -2.58862669
 C           -2.50276066        1.05429260       -2.76824515
 C           -0.03349249       -1.10528593       -4.19251349
 C            1.14565058       -0.25276239       -4.14691046
 C            1.00621321        1.11379212       -3.92358018
 C           -0.31038335        1.67771849       -3.66549829
 C           -1.29079589       -0.56078929       -3.96523135
 C           -1.43611649        0.87074762       -3.74060103
