   70
C70 / DATE: 7/ 1/2024 / Origin: Program Fullerene / C70 from database
 C            1.15464800       -0.10833963        4.58287553
 C            2.48364283       -0.36886273        4.06390238
 C            2.51656109       -1.74902250        3.61753343
 C            0.34759999       -1.29871872        4.35704841
 C            1.15560837       -2.25975233        3.64544757
 C           -0.89721586       -0.88263020        3.76279402
 C            0.41292043        1.03395197        4.07668946
 C           -0.91070738        0.57103054        3.70739202
 C            1.04845003        1.95724036        3.26336647
 C            2.98948136        0.45579779        2.98163325
 C            2.35581087        1.65284117        2.68573651
 C            3.23660085       -1.79366271        2.35712161
 C            3.36927533       -0.42239004        1.88648129
 C            2.86728152       -2.76715070        1.44593729
 C            0.65959278       -2.86582922        2.49299234
 C            1.60430943       -3.45573105        1.65958804
 C           -1.41360655       -1.58672076        2.68199103
 C           -0.58526871       -2.46585453        1.96048735
 C           -2.50707117       -1.00815838        2.05223692
 C           -1.61003844        1.18118033        2.66564975
 C           -2.63429673        0.44071451        2.09161235
 C            0.27247571        2.64797506        2.24919852
 C           -1.01421641        2.21280539        1.92347703
 C            2.33306846        2.10736078        1.30944550
 C            1.18600517        2.98065586        1.17525159
 C            2.99507021       -0.09543449        0.57807459
 C            2.61898398        1.21771804        0.27367986
 C            2.90568572       -2.44268890        0.03588875
 C            2.77647580       -1.11287260       -0.35553797
 C            1.19565651       -3.99341292        0.38602877
 C            2.09597445       -3.44517471       -0.62008625
 C           -0.98397820       -2.90863888        0.68181596
 C           -0.15217879       -3.74145688       -0.06557074
 C           -2.90195163       -1.45155408        0.73496791
 C           -2.09107239       -2.33556963        0.04591433
 C           -3.21874526        0.87185156        0.84369070
 C           -3.47300368       -0.30980148        0.03491403
 C           -1.54266421        2.58486578        0.67538079
 C           -2.73982630        2.01171365        0.22057640
 C            0.66148027        3.16186010       -0.08718158
 C           -0.71586802        3.28444590       -0.21738648
 C            2.15809062        1.52973265       -1.00885141
 C            1.38779774        2.68752818       -1.17227917
 C            2.18202646       -0.80498569       -1.58150309
 C            2.11843632        0.52720620       -1.98215738
 C            1.28260103       -3.04368785       -1.74549063
 C           -0.05879996       -3.53580025       -1.49776586
 C            1.42462333       -1.76531269       -2.27136302
 C           -2.21068283       -2.39883132       -1.34107945
 C           -1.10895765       -2.90458438       -2.14090600
 C           -3.35623923       -0.21471408       -1.35143011
 C           -2.79953989       -1.27728789       -2.06127668
 C           -3.14812364        2.21678565       -1.09171766
 C           -3.37589201        1.05170884       -1.93469110
 C           -1.21075624        3.72077834       -1.44178843
 C           -2.49068410        3.22574522       -1.89210991
 C            0.98974450        3.08379834       -2.44263744
 C           -0.31241135        3.71688008       -2.58731738
 C            1.60375626        0.81158681       -3.24299142
 C            1.15211007        2.15724223       -3.54111186
 C            0.47217026       -1.34214188       -3.19690310
 C           -0.80783719       -1.88984879       -3.13927301
 C           -1.96004328       -1.00809910       -3.22149699
 C            0.64050288       -0.11034020       -3.81227056
 C           -2.66531206        1.27604902       -3.18341295
 C           -2.31556246        2.68648404       -3.23157725
 C           -1.00162211        3.07679947       -3.69658292
 C           -0.12520225        2.05591436       -4.23045352
 C           -1.77874402        0.30326401       -3.64588439
 C           -0.53639861        0.66354997       -4.17473604
