   70
C70 / DATE: 7/ 1/2024 / Origin: Program Fullerene / C70 from database
 C            1.52745890        0.08100773        4.75077093
 C            0.74865790       -1.14183746        4.65741263
 C            1.58281364       -2.13411433        4.02189495
 C            2.68241059       -0.06969592        3.88253725
 C            2.76562910       -1.46046519        3.50277724
 C            2.57704266        0.92343650        2.83320304
 C            0.71636252        1.16074834        4.21821043
 C            1.43950443        1.77556271        3.12664528
 C           -0.52616078       -0.81505360        4.04185706
 C           -0.59660415        0.63279016        3.92858573
 C           -1.01544894       -1.59343634        2.98525743
 C            1.01808425       -2.90081855        2.93334158
 C           -0.32680126       -2.75589808        2.59778336
 C            2.86771418       -1.78940837        2.09195463
 C            1.99101422       -2.91426337        1.85455536
 C            2.79029607        0.56428419        1.50588356
 C            2.90643497       -0.78177439        1.13683375
 C            2.39126627        1.47028543        0.53125349
 C            0.70798831        2.26529865        2.04890588
 C            1.34117675        2.35015038        0.81592734
 C           -1.28088210        1.15455833        2.84429699
 C           -0.68347900        2.15285332        2.06287503
 C           -1.96492310       -1.01711127        2.12538115
 C           -2.23982058        0.34856482        2.25252816
 C           -2.38256850       -1.69892002        0.97797510
 C           -0.73883933       -3.43658923        1.45970972
 C           -1.90088288       -2.97416482        0.73108753
 C            1.51496216       -3.14148641        0.56717135
 C            0.27617827       -3.76880127        0.47271396
 C            2.65054590       -1.12791306       -0.18840558
 C            1.93322600       -2.30238342       -0.47944370
 C            2.69608854        1.19080639       -0.79430390
 C            2.80940094       -0.15270863       -1.17004955
 C            2.41948476        2.17622165       -1.73587859
 C            0.67108644        2.97364594       -0.23245903
 C            1.32841138        3.09167803       -1.45815725
 C           -1.40918909        2.65328551        0.97558805
 C           -0.72020514        3.11230803       -0.16149163
 C           -3.12149253        0.96018501        1.37569588
 C           -2.74762557        2.26581062        0.87064329
 C           -2.99290313       -0.99364822       -0.05986277
 C           -3.62176596        0.20327234        0.24712057
 C           -2.60978831       -1.24172167       -1.38272798
 C           -1.74441672       -3.40334572       -0.64660270
 C           -0.37595133       -3.86490992       -0.81225023
 C           -2.01908762       -2.44960045       -1.70558159
 C            1.42226300       -2.50470992       -1.77335168
 C            0.19797604       -3.14873980       -1.92805134
 C           -0.87866164       -2.43769006       -2.59988546
 C            2.67756836       -0.53599975       -2.49831091
 C            1.80797543       -1.65071294       -2.80094626
 C            2.38573060        1.84961972       -3.14532339
 C            2.46906289        0.46016454       -3.53157242
 C            0.56638538        3.26279052       -2.68600571
 C            1.14861568        2.38334876       -3.68594674
 C           -1.42445494        3.50408764       -1.30284204
 C           -0.81395442        3.32199403       -2.60392060
 C           -3.47776479        2.46227274       -0.36396303
 C           -3.90563096        1.14822281       -0.81979634
 C           -2.80999630        3.11222616       -1.46587093
 C           -2.47080395       -0.18042354       -2.27245937
 C           -1.58585437        2.28552012       -3.27351189
 C           -3.30201963        0.92237015       -2.11787961
 C           -2.86434278        2.20819812       -2.60595129
 C           -0.55649663       -1.27152506       -3.29136871
 C            0.77102023       -1.13969409       -3.68465301
 C            1.23484322        0.11611151       -4.22320483
 C            0.35605490        1.26041180       -4.15560733
 C           -1.34557524       -0.11930372       -3.11291843
 C           -0.93634320        1.11477591       -3.65782188
