   70
C70 / DATE: 7/ 1/2024 / Origin: Program Fullerene / C70 from database
 C            1.13313015       -0.03581543        4.56669994
 C            2.47063029       -0.28584438        4.06551761
 C            2.49576217       -1.64161924        3.54725665
 C            0.32846318       -1.21669429        4.28740615
 C            1.12607671       -2.12471134        3.49969846
 C           -0.92859504       -0.77489393        3.74266700
 C            0.40110990        1.12336671        4.08383207
 C           -0.93124420        0.67855641        3.72626214
 C            1.03631226        2.05316108        3.27609665
 C            3.01322025        0.58701067        3.04091303
 C            2.37347157        1.78494550        2.75409353
 C            3.26004214       -1.63396927        2.31511632
 C            3.47785160       -0.24452360        1.94076718
 C            2.88948975       -2.52623966        1.32672367
 C            0.63263078       -2.60584847        2.28639249
 C            1.56147023       -3.12371444        1.39263285
 C           -1.47108765       -1.43564299        2.64829225
 C           -0.62731821       -2.18942205        1.81347778
 C           -2.60374863       -0.84870988        2.10957476
 C           -1.64031208        1.31063596        2.70641406
 C           -2.71481260        0.60060425        2.18847554
 C            0.27344251        2.71412454        2.22991096
 C           -0.99832275        2.25476308        1.89038722
 C            2.41907311        2.29426909        1.39840937
 C            1.20117390        3.05438666        1.17099408
 C            3.24742966        0.16347775        0.62257761
 C            2.91776552        1.49906382        0.36886447
 C            3.09721705       -2.14936426       -0.05389631
 C            3.13668103       -0.79879841       -0.39380730
 C            1.16132442       -3.42670320        0.03817676
 C            2.26722844       -3.04393330       -0.82942561
 C           -0.99241594       -2.43128319        0.46986398
 C           -0.14032484       -3.16266889       -0.36868307
 C           -3.06987356       -1.25019549        0.80469239
 C           -2.21348141       -1.94934075       -0.03379134
 C           -3.35548726        1.05556920        0.97842809
 C           -3.82365507       -0.12827708        0.27624136
 C           -1.49704329        2.53396617        0.60768036
 C           -2.77854563        2.08797413        0.25170842
 C            0.72397415        3.16315596       -0.12539871
 C           -0.65158887        3.12304624       -0.34981192
 C            2.67081404        1.90898357       -0.93386418
 C            1.59115526        2.85404098       -1.17163376
 C            2.80289085       -0.41763958       -1.69901382
 C            2.64109520        0.92862341       -2.00061026
 C            1.99070311       -2.71143483       -2.14223029
 C            2.29019917       -1.36069478       -2.59425260
 C           -0.41077394       -3.23418073       -1.73076849
 C            0.68763934       -3.06687104       -2.66803420
 C           -2.46394134       -1.93921616       -1.41185789
 C           -1.54946769       -2.52827466       -2.27337054
 C           -4.02474553       -0.04636898       -1.08994053
 C           -3.31176079       -0.97100006       -1.95513758
 C           -3.28736103        2.34044995       -1.01899391
 C           -3.97772753        1.26678065       -1.71392199
 C           -1.10070997        3.33343387       -1.64972497
 C           -2.47008190        3.02692258       -1.99284919
 C            1.05886501        2.59613607       -2.49895984
 C            1.60120983        1.32299911       -2.94068555
 C           -0.27054910        2.88487492       -2.75344914
 C            1.24154206       -0.95791535       -3.52225889
 C            0.30356870       -2.04946700       -3.62952086
 C           -1.09493592       -1.76257256       -3.42626852
 C            0.75866077        0.34473326       -3.46432635
 C           -2.84733986       -0.22660073       -3.11387981
 C           -3.36370468        1.12096411       -3.02269713
 C           -2.44704651        2.22054687       -3.20622878
 C           -1.05778271        1.92551154       -3.50381882
 C           -1.54949639       -0.45701774       -3.56015132
 C           -0.61803220        0.60038963       -3.58298171
