   70
C70 / DATE: 7/ 1/2024 / Origin: Program Fullerene / C70 from database
 C            1.16115172       -0.11396414        4.62792015
 C            2.40374538       -0.45589070        3.96957386
 C            2.22389215       -1.75933630        3.34741108
 C            0.30291367       -1.28270263        4.54317574
 C            0.82489947       -2.10995551        3.47477372
 C           -1.05176857       -0.80121613        4.43461026
 C            0.39450277        1.00575319        4.11177687
 C           -0.99492375        0.64836897        4.27480948
 C            0.81045431        1.61995801        2.93158920
 C            2.90257112        0.43512408        2.94206027
 C            2.16749210        1.56503997        2.59482675
 C            2.79502775       -1.68656684        2.01875359
 C            3.42625877       -0.39146856        1.86866809
 C            2.07315685       -2.16886768        0.94637298
 C            0.07221072       -2.29566672        2.31307947
 C            0.72992365       -2.53336448        1.10372913
 C           -1.87675178       -1.29766854        3.35387559
 C           -1.30331814       -2.02979878        2.30891463
 C           -1.93051475        0.99115958        3.22513100
 C           -2.74343442       -0.19158751        3.01707617
 C           -0.13454864        2.02021186        1.96709827
 C           -1.48925402        1.69511547        2.10524065
 C            0.29841779        2.66238201        0.80418038
 C            2.60735333        2.26898281        1.48691818
 C            1.64199184        3.00738335        0.70234157
 C            3.50923476        0.17856160        0.59640963
 C            3.46289793        1.56906263        0.54193535
 C            2.52604149       -1.83849970       -0.31807540
 C            3.09211865       -0.56882078       -0.52290373
 C            2.00665923       -2.56223625       -1.37657553
 C           -0.01429328       -2.86554906       -0.02950482
 C            0.66788346       -3.10282940       -1.22669051
 C           -2.01612153       -2.12275763        1.10819448
 C           -1.38720124       -2.60407709       -0.04526963
 C           -3.45644107       -0.27802014        1.84149792
 C           -3.22716084       -1.43284471        0.99484276
 C           -2.31291364        1.70825634        0.97821194
 C           -3.42283757        0.85979112        0.94816700
 C           -0.52506100        2.68065236       -0.33369355
 C           -1.86696832        2.28988983       -0.21055600
 C            0.01296514        2.99286093       -1.59870126
 C            2.23313477        3.18869186       -0.60386474
 C            3.32009447        2.22933700       -0.73254314
 C            1.38719778        3.04433494       -1.76121015
 C            3.03494672        0.03747677       -1.79369402
 C            3.05856838        1.42206318       -1.90194201
 C            2.00704490        2.08082949       -2.65755377
 C            2.14337660       -2.04829307       -2.71654036
 C            2.51960823       -0.66310082       -2.87856636
 C           -0.01257196       -2.95601030       -2.50236301
 C            0.88353107       -2.26120572       -3.40691581
 C           -2.08201085       -2.60183980       -1.25688897
 C           -1.35382186       -2.61984649       -2.51142957
 C           -3.73735231       -1.07473864       -0.31811656
 C           -3.91501524        0.37273256       -0.32613345
 C           -3.21554277       -1.71179217       -1.43196221
 C           -2.68551960        2.20972751       -1.33893114
 C           -3.60962829        1.09768469       -1.46445064
 C           -0.70620627        2.68851686       -2.74365986
 C           -2.12108276        2.43455398       -2.64812677
 C            1.18639523        1.31781101       -3.49066241
 C            1.51757022       -0.01986659       -3.71932156
 C            0.46304197       -0.99225019       -3.97212595
 C           -0.13286208        1.73496482       -3.68141537
 C           -1.80074418       -1.47536860       -3.29598971
 C           -3.00899654       -0.96295456       -2.66311780
 C           -3.28314782        0.39844733       -2.69687756
 C           -2.42093210        1.27072634       -3.46906554
 C           -0.86578362       -0.59909727       -3.85760569
 C           -1.16354361        0.75360102       -3.98012159
