   70
C70 / DATE: 7/ 1/2024 / Origin: Program Fullerene / C70 from database
 C            1.20112243       -0.07547742        4.37476586
 C            2.44327134       -0.34106920        3.69424667
 C            2.38297263       -1.70309793        3.18345213
 C            0.36813691       -1.26438298        4.25388415
 C            1.00660551       -2.13954541        3.29763648
 C           -0.97963738       -0.80976272        3.98389646
 C            0.39452170        1.04112945        3.92970507
 C           -0.97260483        0.63299477        4.17014992
 C            0.69656658        1.69263002        2.72966977
 C            2.81114254        0.50299685        2.57848645
 C            1.88125302        1.39878980        2.03987877
 C            2.99656191       -1.69043216        1.86537040
 C            3.54803946       -0.35939707        1.67961920
 C            2.32875259       -2.29133625        0.79744956
 C            0.33077087       -2.48335278        2.13473298
 C            1.07639786       -2.87009252        1.02191271
 C           -1.68291161       -1.34243751        2.90447947
 C           -1.02495400       -2.16177717        1.97574733
 C           -2.86336159       -0.70476666        2.52723222
 C           -1.98325281        1.37271642        3.58544761
 C           -3.09580380        0.65003296        2.99654127
 C           -0.32026480        2.40092226        2.08536552
 C           -1.60791035        2.40633496        2.63627226
 C           -0.12743630        2.87826629        0.78711233
 C            2.03113226        1.80095508        0.70782919
 C            0.97971401        2.44258415        0.04646068
 C            3.75600112        0.08027110        0.38907692
 C            3.11023495        1.31277647       -0.02844785
 C            2.70524231       -1.94687394       -0.50556293
 C            3.56204084       -0.86266758       -0.69415605
 C            2.00575454       -2.47375744       -1.59696822
 C            0.41758200       -3.48741382       -0.02896935
 C            0.96363108       -3.36822808       -1.36733383
 C           -1.64753908       -2.45141800        0.75900393
 C           -1.02273834       -3.32965602       -0.11987428
 C           -3.30413871       -0.77254317        1.14429462
 C           -2.60372329       -1.56886672        0.25821470
 C           -3.58955779        1.43559029        1.87995167
 C           -2.75822171        2.62100681        1.77449040
 C           -3.69628765        0.56162454        0.72307099
 C           -1.18944182        3.52060991        0.15465253
 C           -2.54106896        3.14471473        0.51421004
 C           -1.19015537        3.65479225       -1.28359430
 C            1.02285085        2.59946075       -1.35232157
 C           -0.04871867        3.17732676       -2.02696346
 C            3.02410953        1.26646296       -1.47529924
 C            3.44495036       -0.06642435       -1.89550929
 C            1.94973906        1.87698997       -2.10791760
 C            2.13883647       -1.89109991       -2.86265858
 C            2.86406293       -0.63873600       -3.01397612
 C            0.99755601       -1.85795312       -3.77067396
 C           -0.15127107       -3.41304079       -2.29614290
 C           -1.37434726       -3.27387426       -1.52709682
 C           -0.19261439       -2.44837717       -3.37537368
 C           -2.55883907       -1.19306903       -1.08217714
 C           -2.07811655       -2.10225622       -2.01298814
 C           -1.37020437       -1.60836745       -3.17679931
 C           -3.27182203        1.04329786       -0.51524348
 C           -3.05722310        2.41522268       -0.63138699
 C           -2.35634781        2.93263771       -1.78201630
 C           -2.66483152        0.15884159       -1.42138660
 C           -0.58236308        2.49383677       -3.18865579
 C           -1.28567504       -0.23293880       -3.38163382
 C           -1.88398181        2.00537154       -2.78426861
 C           -2.04959397        0.63500371       -2.59273529
 C            1.62049559        1.48817669       -3.40762331
 C            2.10115793        0.21169334       -3.90606638
 C            0.94513441       -0.53970788       -4.36810621
 C            0.25015642        1.62625552       -3.86729942
 C           -0.22953809        0.28188057       -4.13708343
