   70
C70 / DATE: 7/ 1/2024 / Origin: Program Fullerene / C70 from database
 C            1.25480554       -0.03384148        4.45911247
 C            2.52876218       -0.27630353        3.82766270
 C            2.53068073       -1.65736236        3.38540474
 C            0.41988213       -1.21300810        4.25105198
 C            1.15339595       -2.11698206        3.40456053
 C           -0.87105007       -0.74206991        3.80449443
 C            0.47166690        1.10195168        4.02428527
 C           -0.90260531        0.66564280        4.14644712
 C            0.84085954        1.81258146        2.87754604
 C            2.90471897        0.53780274        2.69118389
 C            2.09033397        1.59192359        2.27392961
 C            3.24783644       -1.71707054        2.12563668
 C            3.47665924       -0.34785804        1.68679771
 C            2.81647727       -2.63812412        1.19094632
 C            0.59175809       -2.55459704        2.21005935
 C            1.45992729       -3.15840366        1.31110293
 C           -1.36360360       -1.13435944        2.55641128
 C           -0.59303833       -1.96673731        1.72794062
 C           -2.40891517       -0.38167451        2.00978483
 C           -1.87147112        1.43706356        3.54844034
 C           -2.83022871        0.75710295        2.70876429
 C           -0.15530331        2.52838302        2.19790021
 C           -1.43262782        2.56941207        2.75573900
 C            0.02534569        2.87441374        0.85369480
 C            2.34590102        2.13140165        1.01876967
 C            1.30298526        2.86201523        0.32557931
 C            3.33346839       -0.00889497        0.33907552
 C            3.04729009        1.31621181        0.03690072
 C            3.01057365       -2.33693858       -0.20859700
 C            3.08034327       -1.00487184       -0.61474270
 C            1.00211671       -3.46916118       -0.02162756
 C            2.12895637       -3.23987367       -0.91448061
 C           -0.97600949       -2.16161331        0.39036201
 C           -0.26519155       -3.06003811       -0.41769860
 C           -2.76922692       -0.55602947        0.66673097
 C           -2.01460631       -1.39524061       -0.15608042
 C           -3.70133263        0.29625622        0.07308746
 C           -3.51519872        1.82469993        2.01584146
 C           -2.56388929        2.92731457        1.92297655
 C           -4.01456902        1.56826644        0.69142407
 C           -1.06800925        2.98156197       -0.01304554
 C           -2.34078752        3.17888990        0.51590994
 C           -3.46880005        2.60032054       -0.17358002
 C           -0.92096892        2.67141852       -1.37807425
 C            1.47891693        2.64449985       -1.09624218
 C            2.53718607        1.66017479       -1.27148694
 C            0.36961674        2.58510828       -1.93274828
 C            2.62635308       -0.66526896       -1.89899555
 C            2.37969838        0.67232241       -2.23481138
 C            1.86339388       -2.98463944       -2.24432620
 C            2.24207994       -1.68492152       -2.77730527
 C           -0.57418867       -3.17089301       -1.76912377
 C            0.52333874       -3.26582633       -2.71937469
 C           -2.25621345       -1.40430396       -1.53890023
 C           -1.58333019       -2.30977655       -2.34888405
 C           -3.58060533        0.57776348       -1.34021743
 C           -3.22176783        1.98297367       -1.45097825
 C           -2.04970040        2.28295457       -2.12888320
 C           -2.88850734       -0.31576770       -2.14357464
 C           -1.86855493        1.56897982       -3.30347916
 C           -2.34873650        0.19735668       -3.32152648
 C            0.55847938        2.00653861       -3.18580356
 C            1.58104000        0.98040950       -3.33439869
 C           -0.58841706        1.60443388       -3.96205459
 C            1.33827657       -1.39504462       -3.87671653
 C            0.25072885       -2.36008642       -3.81614596
 C           -1.10942243       -1.87972024       -3.65862730
 C           -1.41194692       -0.59756305       -4.09181481
 C            1.04278991       -0.07499090       -4.17556953
 C           -0.32781903        0.28170665       -4.50563947
