   70
C70 / DATE: 7/ 1/2024 / Origin: Program Fullerene / C70 from database
 C            1.35473076       -0.10351860        4.40902740
 C            2.61409924       -0.41093461        3.77651401
 C            2.53471884       -1.76283890        3.24295253
 C            0.50756656       -1.28185705        4.31946916
 C            1.22940499       -2.30082590        3.57625930
 C           -0.80152718       -0.85677009        3.84530340
 C            0.59223385        1.02500417        3.91537536
 C           -0.78429544        0.58815564        3.73842640
 C            1.14377714        1.90071839        2.97868635
 C            3.07586422        0.45060778        2.70891366
 C            2.40049426        1.63412545        2.40581006
 C            2.94118512       -1.71427660        1.84655436
 C            3.50797980       -0.40152664        1.61370336
 C            2.11929404       -2.27724010        0.87387662
 C            0.54501052       -3.02688517        2.61340512
 C            1.10248557       -3.13916273        1.27201389
 C           -1.43783933       -1.59239224        2.85422969
 C           -0.87974673       -2.80553239        2.44955137
 C           -2.37428224       -0.96152021        2.03237778
 C           -1.55684603        1.20528284        2.76138564
 C           -2.43547728        0.43909648        1.98848240
 C            0.26956980        2.79301323        2.36012005
 C           -1.14276539        2.45194859        2.29487921
 C            0.62698987        3.43128832        1.10600599
 C            2.78292303        2.28482545        1.23334144
 C            1.87803605        3.20585672        0.56767767
 C            3.48157412        0.12133162        0.33015794
 C            3.45092827        1.50619078        0.20231003
 C            2.08757967       -1.70786190       -0.40316267
 C            2.96384502       -0.65925349       -0.70352300
 C            1.09429570       -2.08284918       -1.32229123
 C           -0.00322136       -3.40393421        0.37132960
 C           -1.22932151       -3.35352219        1.15354572
 C            0.00301779       -2.85252519       -0.90383294
 C           -3.03818625       -1.72335404        1.07057010
 C           -2.38667356       -2.90851288        0.53941432
 C           -3.73380481       -1.07511346       -0.02906293
 C           -3.20108522        1.07637444        1.01155466
 C           -3.80694162        0.30816322       -0.06236929
 C           -1.66712512        2.97302118        1.04394009
 C           -0.53435335        3.38366852        0.23403029
 C           -2.72181065        2.31987426        0.43447762
 C           -0.40031277        2.90136744       -1.06872323
 C            2.00547633        2.99868003       -0.86593034
 C            3.12508416        2.09448204       -1.08234564
 C            0.86457400        2.87869077       -1.66266519
 C            3.02231006       -0.16445748       -2.00053669
 C            3.10909281        1.27623291       -2.20070762
 C            1.13847184       -1.60745985       -2.63803962
 C            2.13008973       -0.70344121       -3.00898367
 C            0.00876282       -1.72594682       -3.45120085
 C           -1.19845579       -2.79248334       -1.60895893
 C           -2.40306021       -2.79032850       -0.90598064
 C           -3.42549414       -1.81413093       -1.24404314
 C           -1.19181695       -2.34693059       -2.92303977
 C           -3.33435532       -1.14614107       -2.45789967
 C           -2.33432558       -1.59296659       -3.41215826
 C           -3.56066633        1.01946757       -1.30936863
 C           -2.69514933        2.14321340       -1.00530207
 C           -1.49440192        2.29362910       -1.70033671
 C           -3.34395611        0.31050208       -2.48117455
 C           -0.40154024       -0.59666136       -4.28003062
 C           -1.82811935       -0.42294903       -4.10311127
 C           -1.34482863        1.68212159       -2.94993488
 C           -2.28833083        0.74703512       -3.38033113
 C            1.00940270        2.38428858       -2.95416004
 C            2.20268233        1.62131835       -3.27706375
 C            1.77963062        0.38524780       -3.90289359
 C           -0.11319742        1.73196294       -3.60006203
 C            0.39013234        0.53931773       -4.27644802
