   70
C70 / DATE: 7/ 1/2024 / Origin: Program Fullerene / C70 from database
 C            1.34369740       -0.13858606        4.25019724
 C            2.57175224       -0.38782023        3.53178666
 C            2.46991986       -1.70268476        2.91946568
 C            0.48400949       -1.30211695        4.08143917
 C            1.10884977       -2.16790603        3.10695633
 C           -0.85514461       -0.81384554        3.81713442
 C            0.55470021        1.02231290        3.89190174
 C           -0.82833322        0.61851744        4.05180213
 C            0.90966823        1.78956929        2.77850557
 C            2.96589392        0.53899323        2.49191878
 C            2.18802457        1.66346655        2.21435684
 C            2.98377007       -1.60080646        1.56102010
 C            3.47190019       -0.24847742        1.38068039
 C            2.26508325       -2.18717185        0.52610392
 C            0.39151362       -2.54901882        1.98261976
 C            1.09985352       -2.88613975        0.83532125
 C           -1.55993527       -1.29752324        2.71569187
 C           -0.97510336       -2.26221347        1.88029966
 C           -2.67316448       -0.57784872        2.27490263
 C           -1.80498599        1.39392124        3.45787543
 C           -2.86872945        0.72622919        2.72976314
 C           -0.08797560        2.52056364        2.11840292
 C           -1.38348740        2.51078682        2.63221015
 C            0.15643286        3.06729393        0.85249832
 C            2.49418342        2.36890121        1.05641505
 C            1.47001665        3.16503008        0.40837547
 C            3.43466037        0.31040385        0.11071560
 C            3.24476128        1.68794849        0.01258176
 C            2.45268961       -1.72042399       -0.77705190
 C            3.11735411       -0.49907727       -0.98275870
 C            1.80897491       -2.38089048       -1.83420495
 C            0.43188510       -3.55401033       -0.17279721
 C            0.86456491       -3.36349374       -1.54455665
 C           -1.68439970       -2.75630606        0.77938074
 C           -1.02008662       -3.55402473       -0.15272951
 C           -3.37484105       -1.01332713        1.15604356
 C           -2.89249296       -2.16397677        0.41633392
 C           -3.85969485       -0.04033336        0.18373945
 C           -3.43147896        1.71222319        1.82534328
 C           -2.49012353        2.81955993        1.75325705
 C           -3.76053005        1.30978529        0.47024478
 C           -0.89856516        3.30514537       -0.04261709
 C           -2.20757713        3.07136566        0.35924825
 C           -3.02124001        2.16784330       -0.44023978
 C           -0.65706819        3.26827603       -1.41208681
 C            1.75563745        3.17740483       -1.01824543
 C            2.87491238        2.27912860       -1.26200746
 C            0.70146101        3.22758237       -1.91763188
 C            3.16982984        0.06642992       -2.25306671
 C            2.89210808        1.48421530       -2.40115488
 C            1.79512197       -1.81989166       -3.10903331
 C            2.55365213       -0.61639102       -3.36778780
 C            0.52640350       -1.68716754       -3.81055202
 C           -0.30994482       -3.47421534       -2.39204935
 C           -1.47683269       -3.56276917       -1.53170069
 C           -0.55504382       -2.43178257       -3.37116131
 C           -3.18727221       -1.92256488       -0.99101354
 C           -3.45055221       -0.50463188       -1.12597796
 C           -2.42047988       -2.54813938       -1.95699644
 C           -1.75938345       -1.72830764       -2.95970968
 C           -2.47766302        1.64951809       -1.61809020
 C           -1.47482053        2.38954984       -2.23371826
 C           -2.59685212        0.28211580       -1.89926461
 C           -1.72915848       -0.33822378       -2.81126827
 C            0.70827016        2.37291264       -3.09416287
 C            1.83704195        1.62142066       -3.39356528
 C            1.66424486        0.32783823       -4.02860185
 C            0.34066203       -0.27103173       -4.05473965
 C           -0.60969701        1.76106222       -3.20929244
 C           -0.72084712        0.39582461       -3.44469852
