   70
C70 / DATE: 7/ 1/2024 / Origin: Program Fullerene / C70 from database
 C            1.63282284        0.10629955        4.86519593
 C            0.80950926       -1.08205427        4.72855055
 C            1.37768224       -1.89900269        3.66720553
 C            2.69635747        0.01370947        3.88410383
 C            2.66914408       -1.32608599        3.32720328
 C            2.57539777        1.13640007        2.96631377
 C            0.80973809        1.24653210        4.51262171
 C            1.36175677        1.85166788        3.30913540
 C           -0.57115595       -0.65144494        4.60587141
 C           -0.57229172        0.80290298        4.49257787
 C           -1.41542399       -1.39709317        3.79333057
 C            0.53657815       -2.36762170        2.65430902
 C           -0.83314847       -2.37421967        2.88276667
 C            1.02141880       -2.50336846        1.34707925
 C            3.13558727       -1.48299038        2.03617689
 C            2.37621299       -2.31063759        1.11683948
 C            2.87196942        0.91578155        1.62561228
 C            3.48238714       -0.28620446        1.29165351
 C            2.14701540        1.59082637        0.63729252
 C            0.49284014        2.22915314        2.29213593
 C            0.92489393        2.18828461        0.96331231
 C           -1.43458972        1.41435750        3.59244137
 C           -0.87318291        2.27406289        2.56218930
 C           -2.49891620       -0.73695128        3.08437177
 C           -2.50302357        0.64275678        2.97498523
 C           -1.73740828       -2.52480345        1.76566511
 C           -2.79176507       -1.53425373        1.91022075
 C            0.13509216       -2.55539352        0.25772212
 C           -1.23210117       -2.76218480        0.49269292
 C            0.59850315       -2.29726001       -1.05024482
 C            2.82024065       -1.94617743       -0.20987137
 C            3.51904825       -0.67574827       -0.09316381
 C            1.96645589       -2.10798831       -1.29454982
 C            2.46526917        1.37781320       -0.71206018
 C            3.25749800        0.27102340       -1.06418776
 C            1.72774528        2.04401718       -1.70449380
 C            0.03552779        2.52954325       -0.05587549
 C            0.49193985        2.61924761       -1.37091555
 C           -1.81243433        2.29325928        1.46206558
 C           -2.79335929        1.24776167        1.68559569
 C           -1.34157087        2.46624015        0.17460988
 C           -3.27778275       -0.93673525        0.75275285
 C           -3.17189171        0.45684152        0.59845052
 C           -2.13506500       -2.64143096       -0.55827544
 C           -3.26526210       -1.74054376       -0.38137383
 C           -0.31902260       -2.10372421       -2.09121078
 C           -1.64415583       -2.45992808       -1.90560117
 C            0.04456396       -1.37517232       -3.22894141
 C            2.36004019       -1.47268100       -2.47374060
 C            3.13278615       -0.24673715       -2.34087431
 C            1.39417746       -1.24864391       -3.52937721
 C            2.08817058        1.86577446       -3.04476738
 C            2.75833916        0.64077017       -3.40999913
 C            1.86045364       -0.09706153       -4.27995178
 C            1.13166886        2.11928273       -4.10351499
 C            0.88612902        0.84765999       -4.77330490
 C           -0.44911414        2.91580907       -2.36180668
 C           -0.15046780        2.68443735       -3.75757649
 C           -2.17809004        2.09744046       -0.86922767
 C           -3.03888183        1.00745078       -0.68597271
 C           -1.82836254        2.51742396       -2.14554334
 C           -3.57288394       -1.15579441       -1.66535089
 C           -2.66377164       -1.73952086       -2.63800618
 C           -3.47632414        0.27937621       -1.78936548
 C           -0.91063184       -0.60856266       -3.91971301
 C           -0.51812820        0.54200620       -4.60380018
 C           -1.17525715        1.79051062       -4.27153951
 C           -2.25939197        1.75394873       -3.30502149
 C           -2.24395257       -0.67825572       -3.52793846
 C           -2.90615164        0.54590305       -3.09589321
