   70
C70 / DATE: 7/ 1/2024 / Origin: Program Fullerene / C70 from database
 C            1.51242929       -0.04359493        4.65862474
 C            0.70835190       -1.21107596        4.35306723
 C            1.35084637       -1.94031935        3.27092614
 C            2.64098013       -0.03637844        3.74720177
 C            2.55627988       -1.21435801        2.91050863
 C            2.67536684        1.25375144        3.09198244
 C            0.70600181        1.12965796        4.36848757
 C            1.45225675        1.96209065        3.44870012
 C           -0.65557002       -0.76268957        4.15698411
 C           -0.60917918        0.67884702        3.96392869
 C           -1.45463156       -1.50804532        3.30966571
 C            0.54697848       -2.47284578        2.26011864
 C           -0.82456604       -2.52514938        2.48025749
 C            1.03051448       -2.51750439        0.94481355
 C            2.86307396       -1.08486244        1.56737232
 C            2.29323906       -1.98469944        0.67357446
 C            3.10793143        1.31621060        1.77007783
 C            3.38251659        0.12446849        1.08884232
 C            2.75473765        2.44609891        1.03640503
 C            0.76828549        2.63646447        2.44226804
 C            1.53133565        3.14262508        1.39407565
 C           -1.17757897        1.23101801        2.81682955
 C           -0.58840605        2.35620844        2.22694493
 C           -2.39541574       -0.81230106        2.45347325
 C           -2.16222414        0.51528187        2.12489817
 C           -1.70980225       -2.75776950        1.36370371
 C           -2.74589613       -1.73505983        1.39819144
 C            0.18415578       -2.90235583       -0.11396635
 C           -1.18582247       -3.11259733        0.13032128
 C            0.68699639       -2.95569580       -1.42920998
 C            2.82363480       -2.07528219       -0.60058400
 C            1.96571527       -2.47504023       -1.69276148
 C            3.80107138        0.19002354       -0.23791784
 C            3.66431037       -0.99087553       -1.07305965
 C            2.85346498        2.43423872       -0.41423462
 C            3.41556551        1.33728484       -1.04335522
 C            0.88784140        3.57619844        0.16762061
 C            1.62371471        2.99953526       -0.94441717
 C           -1.25859127        2.99369500        1.18723299
 C           -0.49434246        3.60347905        0.10900342
 C           -2.67607279        1.01528461        0.92799080
 C           -2.40843943        2.33750802        0.58956944
 C           -3.21425919       -1.24017646        0.18744045
 C           -3.22076385        0.14392446       -0.02911248
 C           -2.08666155       -3.09743617       -0.92796204
 C           -3.14715881       -2.10213246       -0.90507424
 C           -0.19377027       -2.97435564       -2.50835136
 C           -1.59841932       -3.20124814       -2.27890658
 C           -0.06682176       -1.93380651       -3.51645574
 C            2.12418414       -1.49845989       -2.76101916
 C            3.15242017       -0.56292496       -2.36423779
 C            2.79242610        0.83178892       -2.25310642
 C            0.97524685       -1.02296952       -3.38250460
 C            0.92528537        2.33384009       -1.95139246
 C            1.48802725        1.20755693       -2.56385873
 C            0.68466337        0.34860500       -3.32371023
 C           -1.14945510        3.25773145       -1.14007636
 C           -2.46850173        2.75214574       -0.79917202
 C           -0.42036944        2.64236776       -2.15977358
 C           -3.59194844        0.63764510       -1.28212182
 C           -3.12730291        1.94699453       -1.71176071
 C           -3.31891664       -1.59347846       -2.25379211
 C           -2.35025933       -2.26853122       -3.10438206
 C           -1.39869844       -1.47845322       -3.86988077
 C           -3.55696803       -0.24032669       -2.44108596
 C           -0.54268733        0.81513630       -3.78669556
 C           -1.11253126        2.00807956       -3.18519422
 C           -2.54155940        1.79229644       -3.03101136
 C           -1.62707825       -0.12138941       -4.03781435
 C           -2.84918006        0.45610633       -3.50314353
