   70
C70 / DATE: 7/ 1/2024 / Origin: Program Fullerene / C70 from database
 C            1.28915600       -0.04558970        4.11078063
 C            2.41877683       -0.26673076        3.22552966
 C            2.35337762       -1.64700812        2.77193745
 C            0.43078959       -1.21692069        4.03453114
 C            1.03353375       -2.15206519        3.11369399
 C           -0.91288850       -0.76595407        3.76822555
 C            0.46201454        1.13034275        3.91797538
 C           -0.91390610        0.68813030        3.77115590
 C            0.93076546        2.15210512        3.11249159
 C            2.79729274        0.72651611        2.32805832
 C            2.16068918        1.96738614        2.35243997
 C            3.54378272        0.36679158        1.21240930
 C            2.89606430       -1.99177374        1.53811400
 C            3.62935606       -1.03561509        0.83043116
 C            2.33795014       -3.07568355        0.86369347
 C            0.25894246       -2.72902126        2.11149754
 C            0.93994472       -3.40773960        1.10266739
 C           -1.67737248       -1.41728995        2.80996666
 C           -1.04163374       -2.24959265        1.86817184
 C           -2.87720375       -0.80073155        2.47868882
 C           -1.78308982        1.34910293        2.90123617
 C           -2.92413133        0.65342058        2.49668602
 C           -0.00588670        2.87582636        2.27452771
 C           -1.31922818        2.43145566        2.13924608
 C            2.04401165        2.74326359        1.12683788
 C            0.71455723        3.33614899        1.09749848
 C            3.45504863        1.16012226       -0.00452227
 C            2.61024555        2.26612163       -0.05110404
 C            3.71888938       -1.09207019       -0.62384356
 C            3.50725958        0.24865534       -1.13813381
 C            2.60236973       -3.26127039       -0.55054800
 C            3.18293238       -2.16919788       -1.30680044
 C            0.30921339       -3.58453346       -0.19040041
 C            1.35112513       -3.63630496       -1.18815914
 C           -1.63222896       -2.47661996        0.61344607
 C           -0.84610160       -2.87189541       -0.45873984
 C           -3.61994373       -1.26005725        1.32979573
 C           -2.92863907       -2.06848571        0.35392238
 C           -3.68347276        1.08896000        1.33804752
 C           -4.15728552       -0.09442277        0.64761196
 C           -2.05356732        2.88855063        1.04738408
 C           -3.22394169        2.16019493        0.59294664
 C            0.04069605        3.45494796       -0.11437591
 C           -1.34989822        3.38302684       -0.12689301
 C            2.05715225        2.64554688       -1.27051473
 C            0.74469357        3.27512214       -1.30092014
 C            2.65976384        0.46157215       -2.22292878
 C            2.14618290        1.74320318       -2.40812575
 C            2.33422283       -1.92647920       -2.45984692
 C            1.19562749       -2.82828634       -2.37370282
 C            2.11774442       -0.62683978       -2.92210900
 C           -1.08265022       -2.33485098       -1.73557529
 C           -0.05770653       -2.32719979       -2.70165137
 C           -3.23028719       -1.53507827       -0.95969848
 C           -3.87595944       -0.24355662       -0.76768173
 C           -2.29466075       -1.66428529       -1.98444099
 C           -3.15503720        2.05913936       -0.86002994
 C           -2.03895256        2.88078958       -1.30635196
 C           -3.42537073        0.84934616       -1.50505648
 C            0.05067854        2.80504462       -2.49049646
 C            0.97017238        1.95036825       -3.23114392
 C           -1.30653748        2.49075647       -2.42114497
 C            1.03251410       -0.43213119       -3.77855014
 C           -0.07666665       -1.36962334       -3.70645670
 C            0.47657488        0.89526652       -3.97656312
 C           -2.37781078       -0.74906384       -3.02978857
 C           -2.83878455        0.59939340       -2.74162839
 C           -1.83877898        1.51845186       -3.26175442
 C           -1.29534950       -0.64891099       -3.98057145
 C           -0.95913998        0.75780928       -4.13139355
