   70
C70 / DATE: 7/ 1/2024 / Origin: Program Fullerene / C70 from database
 C            1.64193408       -0.07878817        4.63553096
 C            0.79867502       -1.23981437        4.43141109
 C            1.39291655       -2.05085204        3.38279711
 C            2.69644765       -0.12067474        3.63797856
 C            2.51685897       -1.31259545        2.83626648
 C            2.70821117        1.15529950        2.95776093
 C            0.83458892        1.09952446        4.37129299
 C            1.54852673        1.91336006        3.41067092
 C           -0.56282847       -0.77464603        4.24770703
 C           -0.50186427        0.66156024        4.02644032
 C           -1.39729243       -1.53385747        3.44467315
 C            0.54808252       -2.70833307        2.49804126
 C           -0.82970483       -2.66073217        2.72260890
 C            1.00603379       -2.97867422        1.20997184
 C            2.63238340       -1.20616457        1.45441511
 C            1.98739091       -2.14777041        0.64633458
 C            3.01719396        1.18939532        1.60179392
 C            3.10348265       -0.01527697        0.88950370
 C            2.69244275        2.35739349        0.91732176
 C            0.82267002        2.62025394        2.45682609
 C            1.53906867        3.11265654        1.36984572
 C           -1.10163885        1.20657414        2.89344024
 C           -0.54358078        2.34721246        2.30216296
 C           -2.29293115       -0.85992950        2.52127011
 C           -2.08913630        0.48211540        2.21473288
 C           -1.74035486       -2.95892022        1.62928891
 C           -2.57534146       -1.78320454        1.43680786
 C            0.19443274       -3.75338515        0.38969488
 C           -1.24484567       -3.61473472        0.51553800
 C            0.49809531       -3.86055007       -1.01893220
 C            2.23361931       -2.15438045       -0.73383788
 C            1.50132365       -2.98206783       -1.57636808
 C            3.34815176        0.02177951       -0.47893727
 C            2.91333523       -1.08843393       -1.30896520
 C            2.70269356        2.38015668       -0.53386296
 C            3.10866532        1.24998383       -1.21914358
 C            0.83867874        3.60738815        0.19942905
 C            1.51586060        3.09212155       -0.98028247
 C           -1.25914189        2.99659348        1.30057156
 C           -0.54341904        3.65190504        0.21614427
 C           -2.61945408        0.98554871        1.02598783
 C           -2.40810035        2.32519586        0.72120087
 C           -2.75482685       -1.26353435        0.15885900
 C           -3.02877119        0.09675428        0.02327874
 C           -1.74381912       -3.23874027       -0.79319324
 C           -0.74048666       -3.64345149       -1.75083599
 C           -2.35776064       -2.00167322       -0.96207642
 C            0.96905371       -2.43592519       -2.81544946
 C           -0.45233526       -2.75028697       -2.85157869
 C            2.44245419       -0.54826990       -2.57702642
 C            2.44267541        0.90090864       -2.45945024
 C            1.39464992       -1.17887424       -3.25089305
 C            0.76486747        2.59122502       -2.04444787
 C            1.32231315        1.61023090       -2.87901368
 C           -1.26956387        3.39221670       -1.01266242
 C           -2.53817864        2.78347435       -0.64891469
 C           -0.59326190        2.92988279       -2.14111020
 C           -3.40928734        0.57532872       -1.22729203
 C           -3.17091429        1.96794942       -1.57302335
 C           -2.33998699       -1.38828459       -2.21972928
 C           -1.34321550       -1.72834944       -3.15350194
 C           -3.10542923       -0.23500442       -2.39396854
 C            0.51641877       -0.40203510       -4.01122489
 C            0.56377424        1.04772211       -3.89606385
 C           -0.88671123       -0.77577208       -4.05683877
 C           -1.35558048        2.47047627       -3.21082810
 C           -2.70762827        2.00565258       -2.94905934
 C           -2.82775228        0.66598466       -3.49609533
 C           -0.76334571        1.55897878       -4.16366357
 C           -1.65948095        0.42118377       -4.30932857
