   70
C70 / DATE: 7/ 1/2024 / Origin: Program Fullerene / C70 from database
 C            0.97345827        0.00494797        4.70432686
 C            2.24152249       -0.31183713        4.08572053
 C            2.20695904       -1.71726619        3.72575691
 C            0.14059564       -1.18896356        4.64282282
 C            0.81971177       -2.13706276        3.78635172
 C           -1.19601578       -0.77288725        4.28827782
 C            0.19180980        1.09722968        4.16359393
 C           -1.19093923        0.67881767        4.20567782
 C            0.62643231        1.77871004        3.02986962
 C            2.63946620        0.42076273        2.90102156
 C            1.83419336        1.43697740        2.40074006
 C            2.90834571       -1.86739350        2.46517827
 C            3.20580892       -0.53225350        1.96432650
 C            2.42539547       -2.80594367        1.56778713
 C            0.21395260       -2.59272216        2.61324790
 C            1.03247958       -3.22109414        1.67994505
 C           -1.77311599       -1.26675164        3.05370468
 C           -1.01648021       -2.06044042        2.19297230
 C           -2.04309912        1.05176529        3.09336915
 C           -2.53843939       -0.17320468        2.49287929
 C           -0.30874620        2.52780188        2.31531489
 C           -1.63227395        2.06676385        2.23363621
 C            0.17486397        3.38201687        1.33131380
 C            2.05252932        1.85380370        1.08935907
 C            1.39224490        2.99402427        0.64410625
 C            3.08891222       -0.28514336        0.59576586
 C            2.56479777        0.94059117        0.15903682
 C            2.69871409       -2.61311648        0.15807784
 C            3.13040627       -1.36880274       -0.28668494
 C            0.53735681       -3.46572660        0.34061351
 C            1.64874314       -3.28950358       -0.58117235
 C           -1.38414790       -2.11977736        0.84128082
 C           -0.71146497       -2.98818072       -0.02355230
 C           -2.77919122       -0.16039904        1.12885750
 C           -2.35906786       -1.23740246        0.34618959
 C           -2.32333939        2.19401584        1.02671816
 C           -2.98079048        1.07049619        0.51390715
 C           -0.74329075        3.91520882        0.34523813
 C           -2.02758128        3.26739927        0.19317447
 C            1.17853834        3.18254081       -0.77882317
 C           -0.07727266        3.88208506       -0.94658525
 C            2.38624317        1.16486777       -1.20929278
 C            1.48993038        2.14277280       -1.64214124
 C            3.09019760       -1.12723423       -1.65273538
 C            2.86525859        0.22724130       -2.11344620
 C            1.38414848       -2.88043334       -1.88516374
 C            2.28578838       -2.00468263       -2.49085616
 C           -1.02056467       -2.99093453       -1.37635826
 C            0.06721214       -2.95203836       -2.34449063
 C           -2.70644059       -1.25060242       -1.00868438
 C           -2.09135463       -2.15243919       -1.87071433
 C           -3.46919985        1.07321037       -0.78625682
 C           -3.40116853       -0.16475686       -1.54388591
 C           -2.29101466        3.16696111       -1.22982379
 C           -1.02371578        3.37370909       -1.91757219
 C           -3.14012845        2.16976031       -1.68297124
 C            0.70426903        1.92451524       -2.78313153
 C           -0.59921527        2.43158035       -2.85101030
 C            2.26184499        0.14515178       -3.42916454
 C            1.89099596       -1.24315841       -3.66199336
 C            1.10241317        0.96773444       -3.71311598
 C           -0.37349665       -2.15257026       -3.47978954
 C           -1.74619320       -1.74499279       -3.22697332
 C            0.50620145       -1.26660027       -4.08854042
 C            0.09787997        0.11050384       -4.31755589
 C           -3.20837378        0.18629846       -2.93951645
 C           -2.89641428        1.60349056       -2.99758146
 C           -1.56953530        1.73408859       -3.56916860
 C           -2.19929861       -0.52257784       -3.70474391
 C           -1.23825068        0.46104953       -4.18666359
