   70
C70 / DATE: 7/ 1/2024 / Origin: Program Fullerene / C70 from database
 C            1.53201814       -0.35591553        5.54456986
 C            0.70306841       -1.52795148        5.33630126
 C            1.27024652       -2.27637604        4.23065105
 C            2.59980202       -0.38638392        4.55787532
 C            2.35114633       -1.49876116        3.65900776
 C            2.69145987        0.93893254        3.99575418
 C            0.72123911        0.81570284        5.25900265
 C            1.51996701        1.69056254        4.43434667
 C           -0.61028407       -1.07620243        4.90905581
 C           -0.55703291        0.36240388        4.74273881
 C            0.17620139       -2.63838100        3.35716478
 C           -0.99301177       -1.87499129        3.75682883
 C            0.42119161       -2.71943988        1.99888908
 C            2.34836166       -1.29531716        2.27558377
 C            1.59843733       -2.16418816        1.48084140
 C            2.76210826        1.07094436        2.55507521
 C            2.73021911       -0.06068205        1.73635113
 C            0.91406250        2.26285023        3.24757829
 C            1.90336654        2.18072241        2.20126210
 C           -1.05374919        0.88992093        3.55222610
 C           -0.40025663        1.95506245        2.90998006
 C           -1.73746761       -1.26934741        2.74214083
 C           -1.94802391        0.11035305        2.81757451
 C           -0.68897375       -2.74568340        1.17201875
 C           -1.74155820       -1.87925779        1.47896943
 C           -0.46483611       -3.11410449       -0.13880693
 C            1.73021449       -2.09311412        0.09198285
 C            0.86354768       -2.87308334       -0.66449096
 C            2.52108076        0.15811343        0.37102052
 C            2.25560006       -0.92585018       -0.47199547
 C            1.45964390        2.23141112        0.89472670
 C            2.10978998        1.42959291       -0.03011700
 C           -0.83193706        2.32212030        1.63081293
 C            0.12892854        2.55921605        0.63777284
 C           -2.65909663        0.72780183        1.80317492
 C           -2.11482778        1.95384917        1.25267229
 C           -2.49187762       -1.29925700        0.44722046
 C           -3.10708314       -0.07298502        0.68272707
 C           -1.41561259       -2.73285882       -1.15832013
 C           -2.36202159       -1.76198562       -0.86866296
 C            0.73223597       -2.62566423       -2.07977650
 C           -0.68309597       -2.66979746       -2.41143281
 C            2.10736270       -0.67830890       -1.84856506
 C            1.51104846       -1.64731867       -2.67140290
 C            1.81773751        1.64464068       -1.36392133
 C            2.15353019        0.65390275       -2.27665462
 C           -0.24578958        2.65337761       -0.70722681
 C            0.76100449        2.50371498       -1.66003351
 C           -2.49765649        2.01384365       -0.14486750
 C           -3.31505528        0.84561980       -0.41823166
 C           -1.56890861        2.41714043       -1.09631479
 C           -2.91129120       -1.03279447       -1.92264010
 C           -3.32935105        0.34341507       -1.70570069
 C           -1.14067862       -1.85745635       -3.44377978
 C           -2.30242522       -1.10410760       -3.24852589
 C            1.18794520       -1.32218052       -3.98495734
 C           -0.20698344       -1.44333048       -4.39324034
 C            2.06283846        0.95929770       -3.63037549
 C            1.70569356       -0.09701866       -4.54842881
 C            0.45697562        2.74609865       -2.99093193
 C            1.30339732        2.14018136       -4.00305465
 C           -1.84387595        2.16053017       -2.44438901
 C           -2.74239618        1.14045760       -2.76790187
 C           -2.43063524        0.21969885       -3.84887083
 C           -0.92262507        2.57292642       -3.40432617
 C           -0.51737434       -0.31976877       -5.25718680
 C            0.71405628        0.41843437       -5.47872166
 C            0.46567155        1.80770700       -5.14015055
 C           -1.53943120        0.61733440       -4.83401767
 C           -0.91597454        1.92198189       -4.70587770
