   70
C70 / DATE: 7/ 1/2024 / Origin: Program Fullerene / C70 from database
 C            1.63109297        0.15339882        4.68669955
 C            0.79853217       -1.02397135        4.55015055
 C            1.34599806       -1.84198857        3.48066134
 C            2.60585835        0.12543951        3.61158264
 C            2.35813772       -1.05223313        2.80371810
 C            2.56401602        1.41429689        2.95915942
 C            0.78252196        1.31178860        4.47058001
 C            1.46580765        2.17888587        3.53546300
 C           -0.57994677       -0.58390462        4.43016476
 C           -0.54181227        0.83385182        4.11373871
 C           -1.43933059       -1.39378734        3.71204543
 C            0.45580042       -2.56874117        2.70504939
 C           -0.88312706       -2.58020595        3.09111004
 C            0.75512051       -2.76987082        1.35718440
 C            2.28735595       -0.91071402        1.41912182
 C            1.51336311       -1.80705797        0.67923870
 C            2.73622489        1.47007396        1.58305552
 C            2.69760686        0.28519462        0.82958956
 C            2.40435321        2.66404060        0.95341129
 C            0.68848913        2.93741388        2.67117928
 C            1.27113170        3.33535267        1.40390126
 C           -1.12927786        1.29988813        2.93308104
 C           -0.67305758        2.49467563        2.38721157
 C           -2.27819052       -0.78659009        2.69557393
 C           -1.89529797        0.43096072        2.14870011
 C           -1.87004120       -3.02633688        2.13571288
 C           -2.68924594       -1.85978770        1.81655263
 C           -0.06124682       -3.63131686        0.63392853
 C           -1.43544536       -3.81683182        1.08610166
 C           -0.08123975       -3.54091626       -0.81373698
 C            1.31536009       -1.58196417       -0.69234787
 C            0.48821766       -2.42965043       -1.43468351
 C            2.72681139        0.37933770       -0.56050036
 C            1.93141395       -0.49432892       -1.31935872
 C            2.74288873        2.80017654       -0.38104883
 C            3.12220976        1.59919988       -1.09602295
 C            1.80146764        3.47785641       -1.24546876
 C            0.17363538        3.53784468        0.47406046
 C           -0.95504759        2.79179536        0.99506763
 C            0.45549317        3.46167160       -0.88154116
 C           -2.00469227        0.63343296        0.76240514
 C           -1.54344678        1.82351645        0.19214484
 C           -2.96381343       -1.58985028        0.48160912
 C           -2.57192600       -0.35248005       -0.06284475
 C           -2.26999047       -3.85369386       -0.09227032
 C           -1.39094281       -3.99790161       -1.23356280
 C           -3.10598443       -2.69691970       -0.35014373
 C           -2.03326354       -3.31561277       -2.32918698
 C           -3.12624649       -2.51794454       -1.77704691
 C            0.03476310       -2.02917655       -2.69938153
 C           -1.24341330       -2.40614167       -3.12608654
 C            1.63815663       -0.21825500       -2.66524870
 C            0.59321294       -0.90033040       -3.30267726
 C            2.91896684        1.86713335       -2.50147057
 C            2.18358773        3.12425926       -2.59600650
 C            2.20370798        0.89425723       -3.29331994
 C            1.13575531        2.93851160       -3.57239699
 C            1.39781860        1.66687085       -4.21789946
 C           -0.46608725        2.83515041       -1.72598624
 C           -1.38487242        1.91187756       -1.18979789
 C           -0.23473776        2.88270972       -3.09903096
 C           -2.66623208       -0.12465957       -1.44789436
 C           -2.97579092       -1.18216843       -2.30792069
 C           -2.16598798       -1.35596943       -3.49355923
 C           -2.08127802        1.01813116       -2.01106234
 C           -0.19085347       -0.23023454       -4.24967019
 C            0.11593290        1.13562193       -4.60509553
 C           -0.91362596        1.95234330       -3.96661014
 C           -1.62134824       -0.22837742       -4.05589184
 C           -1.87396957        1.03295420       -3.39218277
