   70
C70 / DATE: 7/ 1/2024 / Origin: Program Fullerene / C70 from database
 C            1.30961520       -0.12056905        4.34449976
 C            2.60881087       -0.36162273        3.74520433
 C            2.58028975       -1.67669687        3.13054864
 C            0.47368195       -1.27954487        4.08384626
 C            1.25333305       -2.23427871        3.31805975
 C           -0.78498929       -0.81519005        3.52587254
 C            0.56603488        1.06074011        3.94822496
 C           -0.74013335        0.63354097        3.47006125
 C            1.22220148        2.08149674        3.27348672
 C            3.11019983        0.57903155        2.75976848
 C            2.52303423        1.83268172        2.65826042
 C            3.08729406       -1.55491977        1.77379121
 C            3.40111555       -0.15634936        1.53862198
 C            2.45778526       -2.27480194        0.76710896
 C            0.64965431       -2.85335102        2.23247192
 C            1.43581389       -3.15686874        1.12289612
 C           -1.32957887       -1.50887394        2.45268701
 C           -0.72442018       -2.69891103        2.05151087
 C           -2.16705331       -0.83599351        1.56003818
 C           -1.31255583        1.28452939        2.38086896
 C           -2.13595137        0.56705808        1.50550160
 C            0.46039428        2.91162604        2.35897031
 C           -0.83317588        2.54371759        2.00881626
 C            2.53119135        2.50291282        1.37045056
 C            1.36297811        3.36416549        1.31475382
 C            3.08619825        0.41556763        0.30641967
 C            2.89803583        1.79946032        0.22725211
 C            2.50451554       -1.78145506       -0.53637465
 C            2.66601701       -0.40869354       -0.74560847
 C            1.99803044       -2.56680096       -1.56820073
 C            0.90471380       -3.99819578        0.15328962
 C            1.27471208       -3.77939344       -1.23224016
 C           -1.34895765       -3.46676707        1.07969129
 C           -0.52117698       -4.26708716        0.19092174
 C           -2.83345275       -1.56967968        0.57107002
 C           -2.40193954       -2.86429831        0.28297707
 C           -3.53093048       -0.89696735       -0.42773334
 C           -2.85181949        1.25351437        0.52233271
 C           -3.63394836        0.54594462       -0.38101208
 C           -1.41296940        3.19782791        0.93217119
 C           -2.51400381        2.57173562        0.22868310
 C            0.83884748        3.69826523        0.06864771
 C           -0.54730664        3.82523715       -0.05719908
 C            2.61182773        2.37809292       -1.00257938
 C            1.61874791        3.44137895       -1.05841649
 C            2.22990280        0.15837335       -1.94528074
 C            2.39645506        1.52104241       -2.15072829
 C            1.28779034       -1.92181792       -2.65776643
 C            1.32693665       -0.53998937       -2.74657831
 C            0.06154521       -3.81342492       -2.03454959
 C           -1.04144454       -4.12918224       -1.15903244
 C           -2.15676056       -3.21034890       -1.10737745
 C            0.00451582       -2.58331755       -2.80090250
 C           -3.28550281       -1.27619283       -1.81198979
 C           -2.27994126       -2.20257409       -2.05761264
 C           -1.15057135       -1.79971792       -2.79635906
 C           -3.73266236        1.01820280       -1.75271363
 C           -3.36310574       -0.08357036       -2.62444992
 C           -2.46084092        3.01274084       -1.15807145
 C           -1.19525253        3.70126336       -1.35690256
 C           -2.95212181        2.17564933       -2.15106219
 C            1.00925347        3.40579346       -2.37536684
 C            1.48823103        2.20990552       -3.05100409
 C           -0.43579581        3.43131352       -2.48766865
 C            0.22485537        0.12890586       -3.27983253
 C           -1.03730434       -0.47280546       -3.22998691
 C           -2.18046816        0.31331203       -3.35029862
 C           -2.07454103        1.75806484       -3.23635074
 C            0.33243305        1.48988958       -3.55220494
 C           -0.82631654        2.34726937       -3.37632236
