   70
C70 / DATE: 7/ 1/2024 / Origin: Program Fullerene / C70 from database
 C            1.50511725        0.12315541        4.66549732
 C            0.73783106       -1.10220481        4.54093127
 C            1.39584421       -1.94766084        3.55865254
 C            2.64507558        0.01781586        3.77411805
 C            2.67483762       -1.33026991        3.24159240
 C            2.58563353        1.12221351        2.83459075
 C            0.66896511        1.21018060        4.18730158
 C            1.33365876        1.82539496        3.06006678
 C           -0.64339892       -0.73088275        4.30890163
 C           -0.66529264        0.68932949        3.98633696
 C           -1.42159838       -1.58366232        3.54145829
 C            0.62589729       -2.51912626        2.54138251
 C           -0.75643581       -2.57086844        2.70002014
 C            1.18455141       -2.71829050        1.27417841
 C            3.20012260       -1.51122227        1.97418557
 C            2.53469893       -2.43026518        1.07553411
 C            2.99003808        0.90050583        1.52090545
 C            3.53498265       -0.33718810        1.17961098
 C            2.43184095        1.67795663        0.51043699
 C            0.57977103        2.18945281        1.95212872
 C            1.23838794        2.36486360        0.74696740
 C           -1.39035105        1.10536167        2.87272788
 C           -0.79881502        1.96557878        1.93113486
 C           -2.49801080       -1.01377170        2.75274634
 C           -2.50489893        0.35436700        2.50417030
 C           -1.60224172       -2.80385394        1.54512094
 C           -2.75717530       -1.92414637        1.65182450
 C            0.36533478       -2.98340718        0.16657763
 C           -1.02673714       -3.00921362        0.30003669
 C            0.93374606       -3.06717414       -1.10540978
 C            3.01215424       -2.11356778       -0.25710178
 C            3.53128801       -0.75463126       -0.21708515
 C            2.25271283       -2.50748229       -1.34250368
 C            2.83041038        1.45907991       -0.80333286
 C            3.14140921        0.15376731       -1.19930585
 C            2.45074305        2.39425434       -1.75571982
 C            0.54333595        2.90808504       -0.32581627
 C            1.26585143        3.18994978       -1.48167245
 C           -1.52862371        2.34085620        0.79502374
 C           -0.85425798        2.76744081       -0.36794549
 C           -3.31689649        0.82636110        1.48640679
 C           -2.87314165        1.98157164        0.73405287
 C           -3.34112765       -1.41972899        0.49262113
 C           -3.86002885       -0.12624095        0.52908795
 C           -1.83686025       -2.85389708       -0.82271573
 C           -3.01475186       -2.00564313       -0.73261483
 C            0.12399533       -2.78168853       -2.27748201
 C           -1.24374609       -2.65422025       -2.13355177
 C            2.15446389       -1.62517629       -2.49175901
 C            2.67473062       -0.33525991       -2.42776384
 C            0.84291315       -1.81513029       -3.08804990
 C            2.39404462        1.97940020       -3.13898139
 C            2.27138357        0.56424127       -3.40963638
 C            0.55964406        3.37766588       -2.72475738
 C            1.27380989        2.65674510       -3.76440856
 C           -1.54308063        2.85730478       -1.59642975
 C           -0.82071322        2.96991553       -2.77789557
 C           -3.54229366        1.93055653       -0.54482890
 C           -4.09892599        0.59541822       -0.70605837
 C           -2.77493791        2.23303997       -1.72442905
 C           -3.10336421       -1.24257342       -1.97242533
 C           -1.91944221       -1.53277175       -2.76314191
 C           -3.59965312        0.04855815       -1.95315346
 C           -2.86171571        1.09904623       -2.62874933
 C            0.18584683       -0.70458779       -3.61483098
 C            0.98259994        0.34861873       -4.05586175
 C            0.37931545        1.63893328       -4.28838762
 C           -0.93141926        1.87975710       -3.73716198
 C           -1.17061476       -0.48825937       -3.31073404
 C           -1.73643637        0.79732413       -3.39462748
