   70
C70 / DATE: 7/ 1/2024 / Origin: Program Fullerene / C70 from database
 C            1.31049260       -0.02241179        4.30240697
 C            2.56202876       -0.38239850        3.67672507
 C            2.50488645       -1.79851940        3.35292266
 C            0.48487308       -1.21749252        4.36277974
 C            1.13943317       -2.24276720        3.56959248
 C           -0.87241338       -0.83412582        4.02541446
 C            0.51053659        1.02502465        3.70176438
 C           -0.87248014        0.58994283        3.72534645
 C            0.96711769        1.70495965        2.57607726
 C            2.96408908        0.31927572        2.47513954
 C            2.18434551        1.35476801        1.96748855
 C            3.09694954       -1.97586597        2.04104485
 C            3.48654754       -0.66388972        1.54614350
 C            2.50427434       -2.86720187        1.16246985
 C            0.44203614       -2.85030414        2.52413346
 C            1.13838286       -3.31262681        1.40724640
 C           -1.61955170       -1.68101919        3.22405543
 C           -0.94420624       -2.71360304        2.44838362
 C           -2.65465738       -1.10988063        2.38571538
 C           -1.73413585        1.08235184        2.74777878
 C           -2.77883666        0.27167476        2.28503197
 C            0.04312942        2.46566655        1.86034410
 C           -1.32139041        2.18226917        1.98642338
 C            0.49634063        3.24323534        0.79944449
 C            2.43835713        1.77656109        0.66279878
 C            1.75121977        2.88223627        0.17207831
 C            3.39713647       -0.39363464        0.18250372
 C            3.09397595        0.91215786       -0.22098292
 C            2.64020072       -2.63291151       -0.26129748
 C            3.22324297       -1.45477983       -0.71553048
 C            0.45936987       -3.39590221        0.12059751
 C            1.42942688       -3.10101735       -0.91361195
 C           -1.60546002       -2.80198432        1.15285309
 C           -2.73986753       -1.90178289        1.17070490
 C           -0.83793337       -2.91445148        0.00071896
 C           -3.12642388       -1.26805334       -0.00194644
 C           -3.62283241        0.75546310        1.29123565
 C           -3.83344989       -0.06950247        0.11103771
 C           -2.23772951        2.81153285        1.14944153
 C           -3.47795939        2.12794052        0.85121878
 C           -0.42242488        3.64590049       -0.25293809
 C           -1.77642458        3.43262362       -0.08013512
 C            1.59557680        3.06543282       -1.26179133
 C            0.18543767        3.28662300       -1.52003793
 C            3.19657647        1.24838471       -1.56730087
 C            2.31120134        2.25686074       -2.12362988
 C            3.10909899       -1.18090580       -2.07420254
 C            3.29885376        0.17867428       -2.53665346
 C            1.01675828       -2.45975247       -2.07318699
 C            1.97296246       -1.73963914       -2.79171038
 C           -1.21942461       -2.22797179       -1.15734077
 C           -2.45674434       -1.56083812       -1.19228229
 C           -0.33804416       -2.17021436       -2.25144204
 C           -2.88156533       -0.92881345       -2.35640152
 C           -3.96572782        0.81231369       -1.03818383
 C           -3.67323400        2.16247696       -0.58939465
 C           -2.54216882        2.86233368       -1.17502053
 C           -3.45575170        0.39953396       -2.25884741
 C           -0.49656968        2.44506670       -2.40006559
 C           -1.88453674        2.28543505       -2.26242086
 C           -2.54991360        1.28632759       -2.96998741
 C            1.62702443        1.66311102       -3.25928200
 C            2.33069627        0.43552413       -3.59089053
 C            1.55763087       -0.77640433       -3.79943318
 C            0.23283648        1.67639364       -3.32093828
 C           -0.72588188       -1.54886785       -3.43406579
 C           -2.02745023       -0.92600364       -3.52275563
 C           -1.81998839        0.46500683       -3.90809288
 C            0.20824265       -0.65436001       -4.09054895
 C           -0.39611111        0.66681449       -4.04671174
