   70
C70 / DATE: 7/ 1/2024 / Origin: Program Fullerene / C70 from database
 C            1.56523552        0.08581866        4.77848375
 C            0.76150631       -1.11187442        4.61369339
 C            1.56277216       -2.07352228        3.89509998
 C            2.70634911       -0.02568263        3.88452321
 C            2.76787729       -1.39464688        3.43504862
 C            2.59752656        1.02520432        2.88872542
 C            0.76844586        1.21178411        4.33076129
 C            1.51543486        1.90132378        3.29937797
 C           -0.51400601       -0.71840565        4.04600790
 C           -0.55628726        0.73046054        3.98602357
 C           -1.04998312       -1.42707373        2.97797791
 C            0.97699517       -2.73614653        2.74570767
 C           -0.33941649       -2.48332730        2.38424779
 C            2.88217239       -1.64632527        2.01450618
 C            1.96873576       -2.72609833        1.69755586
 C            2.73125116        0.72893848        1.52741976
 C            2.98045879       -0.58774293        1.10945356
 C            2.24606836        1.66280028        0.60076668
 C            0.79299452        2.52777228        2.29949978
 C            1.40179036        2.67878271        1.05962457
 C           -1.19615605        1.33195148        2.90391019
 C           -0.60116937        2.46164426        2.34550727
 C           -2.07339501       -0.82140078        2.25460279
 C           -2.06525973        0.57114719        2.11062968
 C           -2.77450959       -1.60586014        1.35172348
 C           -0.76007920       -2.94198621        1.13657469
 C           -2.10318505       -2.77782980        0.82617338
 C            1.53939316       -2.82130344        0.38329909
 C            0.19022847       -3.08027510        0.10680528
 C            2.82171606       -0.90035209       -0.23817126
 C            2.28539542       -2.14907758       -0.57067995
 C            2.34088578        1.39274280       -0.77105731
 C            2.78857293        0.12974821       -1.17393877
 C            1.78532510        2.28403283       -1.70474073
 C            0.80400840        3.54243344        0.15672384
 C            0.95393483        3.30269904       -1.26142806
 C           -1.31946601        3.18074635        1.40203066
 C           -0.57559039        3.92342099        0.39993923
 C           -2.66110558        1.16746317        0.98897545
 C           -2.42226084        2.51777734        0.72894537
 C           -3.48109704       -0.97454892        0.25738353
 C           -3.28397384        0.37880279        0.01651557
 C           -2.55310350       -2.98258892       -0.52983381
 C           -3.46704566       -1.90251035       -0.86153938
 C           -0.21386669       -3.16749560       -1.24004498
 C           -1.56148346       -3.06481563       -1.57573291
 C            2.04700100       -2.46036201       -1.89574238
 C            0.71629922       -2.91682295       -2.25158792
 C            2.85972457       -0.19884374       -2.52480914
 C            2.50246311       -1.54554529       -2.92275807
 C            1.61820481        1.88556973       -3.02526765
 C            2.28443704        0.69646044       -3.50094558
 C            0.27561895        1.89927907       -3.58501520
 C           -0.35296945        3.45233584       -1.88663375
 C           -1.29818522        3.83505434       -0.85528554
 C           -2.46731495        3.00897235       -0.63998128
 C           -0.73358173        2.53883039       -2.86846269
 C           -3.41223803        0.85390245       -1.28947060
 C           -2.86084554        2.14628578       -1.64815061
 C           -2.00166025        1.95106621       -2.81254987
 C           -3.11520183       -1.40588823       -2.17959893
 C           -1.95307054       -2.14777504       -2.63724909
 C           -3.17657507       -0.04347756       -2.41003794
 C           -2.17888567        0.57577792       -3.26218923
 C            0.29231755       -2.14346527       -3.40824280
 C            1.45469515       -1.45088545       -3.92572309
 C            1.32435288       -0.06164374       -4.29071894
 C            0.03320234        0.57733185       -4.13683081
 C           -0.95178571       -1.51424877       -3.37202904
 C           -1.06863708       -0.14851288       -3.68779706
