   70
C70 / DATE: 7/ 1/2024 / Origin: Program Fullerene / C70 from database
 C            1.45499962       -0.14914020        4.55313419
 C            2.68061192       -0.30733156        3.79328561
 C            2.61418191       -1.58079582        3.09615040
 C            0.60766683       -1.29859494        4.27843568
 C            1.31196042       -2.16753150        3.35166450
 C           -0.70552156       -0.80772560        3.89927193
 C            0.65562295        1.04757686        4.35786934
 C           -0.71653183        0.62786633        4.11573636
 C            1.18431410        2.11506473        3.63876434
 C            3.04479306        0.71055653        2.82459474
 C            2.39030286        1.93398432        2.83640254
 C            3.00881166       -1.36318777        1.71387411
 C            3.28522038        0.05242643        1.55170310
 C            2.30468490       -2.02329366        0.70903455
 C            0.61226833       -2.69160061        2.27195457
 C            1.30643722       -2.92077184        1.08380587
 C           -1.30775998       -1.33991442        2.76200627
 C           -0.76973668       -2.50105504        2.21150250
 C           -2.14947028       -0.54451240        1.97651241
 C           -1.54979444        1.41707117        3.33640122
 C           -2.36095547        0.78701635        2.30811080
 C            0.29121147        2.99423392        2.90096160
 C           -1.06006529        2.67736148        2.80100527
 C            2.19278199        2.63653883        1.58205483
 C            1.01110043        3.46524317        1.72788130
 C            2.89419971        0.66521958        0.36724027
 C            2.41673719        1.98165635        0.37192914
 C            2.26403119       -1.46175048       -0.57178734
 C            2.67401240       -0.13664366       -0.74785866
 C            1.57428114       -2.12933855       -1.59232855
 C            0.68347749       -3.67156137        0.09876287
 C            0.90007626       -3.31370270       -1.29248451
 C           -1.47665374       -3.13618672        1.19966572
 C           -0.73049713       -3.95045625        0.26078731
 C           -2.52759300       -0.99018981        0.71036473
 C           -2.42770199       -2.34712011        0.43553128
 C           -2.63176982       -0.07533137       -0.34394247
 C           -2.55682082        1.74836408        1.24013894
 C           -1.76945875        2.93019084        1.55756762
 C           -2.61508790        1.30228828       -0.07895010
 C            0.30848369        3.82095220        0.58628711
 C           -1.13060048        3.60600353        0.52767476
 C            1.87898488        2.52389584       -0.80001050
 C            0.85616520        3.46506393       -0.71345776
 C            2.51970677        0.47887820       -1.97817794
 C            2.06814813        1.85782898       -2.00604842
 C            1.34765204       -1.50275522       -2.82309631
 C            1.86711151       -0.23337617       -3.05737988
 C            0.36845418       -2.00356391       -3.67982983
 C           -0.31091613       -3.65466626       -2.02251347
 C           -1.36194967       -3.82623796       -1.03703548
 C           -2.38778742       -2.80051483       -0.94189362
 C           -0.61774446       -2.92965826       -3.15992935
 C           -2.72606276       -0.52837391       -1.66665150
 C           -2.48350130       -1.87472018       -1.97395148
 C           -1.87976809       -2.21235614       -3.18731282
 C           -2.81463304        0.41184234       -2.69166095
 C           -2.32405591        2.20422072       -1.10494959
 C           -1.46557057        3.26765445       -0.84392281
 C           -0.25797065        3.39160442       -1.64228210
 C           -2.42073075        1.77879814       -2.42141326
 C            1.06697358        1.97672353       -3.05758473
 C            1.10006533        0.73833541       -3.82503246
 C           -0.14796993        2.61269648       -2.78964578
 C           -1.32601257        2.09748367       -3.32663769
 C           -0.35392487       -1.08905493       -4.55131881
 C           -1.77158487       -1.22964331       -4.24507461
 C           -2.31084225        0.08957881       -4.01437250
 C           -0.02934254        0.32504383       -4.51741072
 C           -1.26914377        1.05339372       -4.33212179
