   70
C70 / DATE: 7/ 1/2024 / Origin: Program Fullerene / C70 from database
 C            1.38874656       -0.05984584        4.29256201
 C            2.57380337       -0.20857073        3.46230229
 C            2.40602860       -1.41692751        2.67346613
 C            0.53873246       -1.21966508        4.07466938
 C            1.15576561       -2.04797929        3.07037402
 C           -0.80105402       -0.75238435        3.83055727
 C            0.56778709        1.13376788        4.15400607
 C           -0.77826299        0.70221487        3.82488401
 C            1.09659820        2.24257458        3.51067505
 C            3.12292968        0.91721723        2.86732320
 C            2.48735273        2.20569571        3.09205398
 C            3.50717766        0.85720517        1.46667724
 C            2.75736428       -1.43307169        1.32505544
 C            3.11869389       -0.23769994        0.69155637
 C            2.27743707       -2.49027210        0.56202889
 C            0.36842711       -2.62829154        2.08076584
 C            1.04954494       -3.14689555        0.98852470
 C           -1.58429064       -1.38696931        2.87551781
 C           -0.98013106       -2.24885321        1.93463966
 C           -2.74068854       -0.70659837        2.52322514
 C           -1.50769069        1.36751497        2.84046122
 C           -2.66048596        0.73821274        2.38446800
 C            0.32955826        2.87233972        2.44588726
 C           -0.85064064        2.27787359        2.00432941
 C            2.60360257        2.97719532        1.87033633
 C            3.39048603        2.20288919        0.92764289
 C            1.27028284        3.39982743        1.47325539
 C            3.11377068        2.35654842       -0.41926979
 C            2.91198535       -0.07385188       -0.68667568
 C            3.07530821        1.17885600       -1.26490011
 C            2.21950581       -2.35947227       -0.87771778
 C            2.33053226       -1.09478344       -1.43899086
 C            0.32246899       -3.53670907       -0.19687253
 C            1.18246578       -3.26052937       -1.33931495
 C           -1.69679347       -2.65242391        0.78800508
 C           -1.03814500       -3.27207447       -0.28154045
 C           -3.56513549       -1.21273852        1.45717951
 C           -3.01809381       -2.24064336        0.60507617
 C           -3.17361654        1.06484620        1.07188333
 C           -3.92272086       -0.08617134        0.60746430
 C           -1.20164445        2.37229248        0.65000656
 C           -2.34701865        1.72584345        0.17796924
 C            0.94115735        3.35979787        0.12474896
 C            1.96814289        3.16435562       -0.79804970
 C           -0.36999615        3.05699718       -0.24590954
 C            2.28218920        1.52126088       -2.43099952
 C            1.63733533        2.80277789       -2.16122555
 C            1.65776765       -0.80022171       -2.63391900
 C            1.56634166        0.52157134       -3.08447227
 C            0.60394640       -3.03266291       -2.57547770
 C            0.90791570       -1.79228370       -3.27202943
 C           -1.64899234       -3.32613488       -1.53541628
 C           -0.81608286       -3.28809765       -2.72677456
 C           -3.48542771       -1.94068722       -0.73463339
 C           -3.75573575       -0.51440406       -0.76840447
 C           -2.81785403       -2.50708070       -1.80328801
 C           -2.50399147        1.50311712       -1.18866484
 C           -3.02845288        0.28566144       -1.64648402
 C           -0.71400641        3.11227815       -1.59748259
 C            0.33800394        3.00245948       -2.59756408
 C           -1.85821725        2.35349186       -2.07251606
 C            0.50600188        0.89417003       -3.91041742
 C           -0.15616645        2.16264024       -3.66969842
 C           -1.55593827        1.87913904       -3.40612569
 C           -0.26985253       -1.41526752       -4.03732609
 C           -1.35987276       -2.27643664       -3.61638515
 C           -2.50090499       -1.67349659       -2.95088520
 C           -2.54965402       -0.28514073       -2.83183132
 C           -0.53400974       -0.06736030       -4.22087830
 C           -1.78358960        0.48006363       -3.70743740
