   70
C70 / DATE: 7/ 1/2024 / Origin: Program Fullerene / C70 from database
 C            0.93913997        0.15486486        4.82007515
 C            2.17495593       -0.13432909        4.12717584
 C            2.17872055       -1.55669757        3.84443455
 C            0.12611792       -1.05641822        4.80836362
 C            0.80836855       -2.01565115        3.96851773
 C           -1.22687888       -0.67814723        4.46492996
 C            0.10688696        1.22678150        4.32222530
 C           -1.26547311        0.77012632        4.42743582
 C            0.47709103        1.92958593        3.17495162
 C            2.44642336        0.54830629        2.87606062
 C            1.51784920        1.45187048        2.36330254
 C            2.84075136       -1.74615570        2.56965084
 C            3.04046030       -0.42767654        1.98161722
 C            2.36921375       -2.75723849        1.74677134
 C            0.18126436       -2.52990790        2.83267457
 C            0.98961391       -3.19745577        1.91625174
 C           -1.78422763       -1.14988986        3.21231704
 C           -1.03640012       -1.98732089        2.38886385
 C           -2.18345059        1.15745219        3.37559407
 C           -2.50049334       -0.03821538        2.60786005
 C           -0.49485880        2.73853954        2.60157262
 C           -1.88927373        2.31010090        2.67212048
 C           -0.28288900        3.27438787        1.27159491
 C            1.50008612        1.69342760        0.98210187
 C            0.70772240        2.72040037        0.46337377
 C            2.86508698       -0.27814856        0.60964105
 C            2.22451474        0.86561092        0.11770491
 C            2.60244451       -2.64258223        0.32178304
 C            2.96422414       -1.40944424       -0.20284315
 C            0.46675171       -3.51928415        0.60207618
 C            1.56191934       -3.40127496       -0.34683026
 C           -1.37565356       -2.06121321        1.03605382
 C           -0.78036207       -3.03699749        0.23476845
 C           -2.56212308        0.04559419        1.21521418
 C           -2.13014022       -1.03311441        0.45113857
 C           -2.41767741        2.44356267        1.33393925
 C           -1.60702304        3.46639509        0.71345286
 C           -2.71115616        1.29278550        0.60054945
 C           -1.70749082        3.60752537       -0.65039776
 C            0.61170911        2.90396022       -0.92134738
 C           -0.47684412        3.63747945       -1.40649423
 C            2.14608724        1.06042312       -1.26171828
 C            1.34204349        2.07525650       -1.78506562
 C            2.88726052       -1.25175435       -1.57629233
 C            2.64202120        0.07119882       -2.10968310
 C            1.25868316       -3.09950813       -1.67128949
 C            2.07705369       -2.18769563       -2.34532372
 C           -1.12639397       -3.11903837       -1.10796274
 C           -0.05983897       -3.28034808       -2.08468448
 C           -2.30801799       -0.99654048       -0.92683175
 C           -2.05813884       -2.15299613       -1.65194897
 C           -2.70885282        1.38563059       -0.79866834
 C           -2.53974377        2.65456616       -1.35645797
 C           -2.44917950        0.24073642       -1.57259760
 C           -0.89798475        3.49501659       -2.78349398
 C           -2.17366958        2.78690166       -2.74865141
 C            1.13664383        2.13162154       -3.16859918
 C           -0.03200407        2.79726217       -3.70016125
 C            2.06788330       -0.10276682       -3.43147951
 C            1.59376702       -1.47774004       -3.52329666
 C            1.30905866        0.92763868       -3.96203328
 C           -0.51935215       -2.69973859       -3.33193204
 C           -1.80183270       -2.06243588       -3.07037692
 C            0.32189835       -1.73863301       -4.01752586
 C           -2.23868086        0.34673637       -2.96319636
 C           -2.02343173        1.59329534       -3.54182774
 C           -0.83415152        1.77900999       -4.35441246
 C            0.02425719        0.63016386       -4.58363069
 C           -1.77521591       -0.75416884       -3.67760528
 C           -0.52906903       -0.63368768       -4.42149904
