   70
C70 / DATE: 7/ 1/2024 / Origin: Program Fullerene / C70 from database
 C            1.25670197        0.04643446        4.96800267
 C            0.50947724       -1.13333430        4.57402306
 C            1.42503899       -2.02684350        3.90742959
 C            2.54713399       -0.00814492        4.29936919
 C            2.66155251       -1.29619095        3.65818462
 C            2.65945619        1.17313725        3.47383310
 C            0.54671217        1.21027580        4.46233675
 C            1.48238678        1.99507272        3.70128356
 C           -0.66277570       -0.69377540        3.84504485
 C           -0.64223964        0.75856641        3.78473282
 C           -1.07116795       -1.38133897        2.70541835
 C            1.01118698       -2.60699921        2.64711490
 C           -0.28909896       -2.41460897        2.17128180
 C            2.91390011       -1.34020122        2.22650173
 C            2.09984803       -2.41728933        1.71146202
 C            3.12661254        1.06950623        2.16280054
 C            3.00124698       -0.15712824        1.49027926
 C            3.06952521        2.24145667        1.42109291
 C            1.02365718        2.72724636        2.61637685
 C            2.02891918        3.19029774        1.78334602
 C           -1.00554710        1.36640212        2.58515243
 C           -0.22022426        2.39541311        2.03661428
 C           -1.94188394       -0.72306711        1.85244694
 C           -1.87167909        0.67000572        1.75164228
 C           -2.50969291       -1.43956881        0.81420966
 C           -0.53554724       -2.81045572        0.84840958
 C           -1.75310417       -2.46740820        0.24255838
 C            1.76267077       -2.41887660        0.37447313
 C            0.57664169       -3.04868937        0.03793236
 C            2.65006997       -0.18725418        0.12835153
 C            2.19839340       -1.37917337       -0.44878645
 C            3.07135409        2.16993674       -0.02305047
 C            2.66970415        0.98384259       -0.63253903
 C            1.66716952        3.92170649        0.60032920
 C            2.51870780        3.43273873       -0.47133421
 C           -0.53969248        2.88215521        0.75142551
 C            0.30231803        3.81489256        0.14243043
 C           -2.35285232        1.29433831        0.60746575
 C           -1.55404565        2.26461154       -0.00498886
 C           -3.48303750       -0.79312392        0.06953550
 C           -3.33301824        0.63640883       -0.13181029
 C           -3.93362561       -1.37988576       -1.17117582
 C           -1.99462366       -2.87152689       -1.07960147
 C           -3.15385415       -2.45678807       -1.73954065
 C            0.39223971       -3.33973067       -1.29710381
 C           -0.95521204       -3.44947921       -1.80742527
 C            1.77440055       -1.38831317       -1.78171755
 C            1.14924288       -2.54733694       -2.24838856
 C            2.05312385        1.00920276       -1.89321502
 C            1.53721627       -0.17238263       -2.43331405
 C            1.72444293        3.44602652       -1.67222277
 C            0.37729467        3.85917265       -1.29854163
 C            1.58734210        2.21614320       -2.42132100
 C           -1.58603140        2.40294220       -1.40675136
 C           -0.53892547        3.04118243       -2.05562337
 C            0.25148238        2.24831999       -2.97213605
 C           -3.39529195        0.86309874       -1.55762868
 C           -3.99670121       -0.31293961       -2.15804912
 C           -2.30889207        1.47934848       -2.16123314
 C           -3.13067856       -2.22933631       -3.17624467
 C           -3.44046272       -0.82539358       -3.39027410
 C           -0.85704081       -3.23363639       -3.24039682
 C            0.38255619       -2.50794053       -3.47712199
 C           -1.92140909       -2.52587934       -3.91819568
 C            0.51635687       -0.07523855       -3.39298368
 C           -0.29462695        1.05390755       -3.39689479
 C           -1.66718084        0.87562827       -3.25427411
 C           -2.24769792       -0.19923638       -3.92342851
 C            0.03557030       -1.21737460       -4.02332531
 C           -1.37379262       -1.26352749       -4.39225328
