   70
C70 / DATE: 7/ 1/2024 / Origin: Program Fullerene / C70 from database
 C            1.51532255       -0.16342290        4.95946342
 C            0.65889510       -1.32945186        4.92675128
 C            1.20740217       -2.24132502        3.94061338
 C            2.55377281       -0.34739527        3.95721062
 C            2.27559568       -1.56774227        3.23326885
 C            2.63143859        0.87698746        3.20023584
 C            0.71746118        0.97322880        4.53879400
 C            1.51897871        1.71750178        3.59726986
 C           -0.64683513       -0.91064414        4.43866784
 C           -0.56764348        0.48617778        4.07969910
 C            0.09765091       -2.71383745        3.15616582
 C           -1.03638868       -1.84560130        3.41105980
 C            0.31903173       -3.02677810        1.83092327
 C            2.22111349       -1.52844446        1.83742434
 C            1.41043144       -2.45125385        1.16397972
 C            2.89484192        0.81254944        1.83862635
 C            2.68600152       -0.39683879        1.15121998
 C            2.72740927        1.99723385        1.13028926
 C            0.87649872        2.38667288        2.57031323
 C            1.68671373        2.84362714        1.54151026
 C           -1.00317086        0.88176026        2.81560435
 C           -0.43695380        2.02229193        2.24022892
 C           -1.72737240       -1.38217129        2.29331337
 C           -1.72349431       -0.00951452        2.00377983
 C           -0.81935322       -3.22570984        1.08160597
 C           -1.83315749       -2.27075253        1.22691560
 C           -0.62448501       -3.80497495       -0.15254155
 C            1.39659054       -2.45327605       -0.23896908
 C            0.54460521       -3.35428770       -0.88362043
 C            2.62440326       -0.37740035       -0.25040668
 C            1.81918465       -1.30707997       -0.91931714
 C            3.15766674        2.00462387       -0.18766867
 C            3.05845985        0.76278288       -0.92803398
 C            2.78128474        3.09460623       -1.06467917
 C            1.10065329        3.72346619        0.64634267
 C            1.74077885        3.99428709       -0.62307468
 C           -0.98772002        2.52676177        1.06206628
 C           -0.32407006        3.57848798        0.42167416
 C           -2.13677053        0.41815124        0.73345934
 C           -1.89334615        1.74085786        0.34410712
 C           -2.56019383       -1.88215143        0.10637232
 C           -2.63004443       -0.51537683       -0.19812019
 C           -1.74170542       -3.84479796       -1.06257653
 C           -2.76301712       -2.83696519       -0.88690436
 C            0.11868684       -3.09494332       -2.24664042
 C           -1.20466124       -3.68379030       -2.39612126
 C            1.26686732       -0.98144073       -2.17084953
 C            0.38774159       -1.85382963       -2.81281052
 C            2.49365700        1.07532311       -2.22799283
 C            2.36842168        2.51769242       -2.33145664
 C            1.46070542        0.28893845       -2.70991137
 C            0.70571656        4.02152547       -1.64034744
 C           -0.58151826        3.86677663       -0.97871465
 C            1.07284980        3.07329815       -2.67929442
 C           -2.35888832        2.19269905       -0.88418554
 C           -1.57205419        3.15668998       -1.63411213
 C           -3.08012740       -0.08615973       -1.45971803
 C           -2.88061042        1.23761540       -1.84135598
 C           -3.17130792       -2.42487955       -2.20779290
 C           -2.20803177       -2.97311424       -3.15921588
 C           -3.30090949       -1.01311026       -2.47873797
 C           -0.42732311       -1.36365087       -3.83676122
 C           -1.77202078       -1.88572034       -4.00591675
 C           -2.67912651       -0.78052555       -3.76894763
 C            0.43148859        0.88967690       -3.43729537
 C            0.09219600        2.21742508       -3.16721198
 C           -1.23981327        2.52232724       -2.89538280
 C           -2.25033816        1.51333355       -3.12908758
 C           -0.51575570        0.07168731       -4.04194532
 C           -1.92230896        0.44129337       -3.94123752
