   70
C70 / DATE: 7/ 1/2024 / Origin: Program Fullerene / C70 from database
 C            1.63370386       -0.03952302        4.45368933
 C            0.82263305       -1.22826398        4.26686353
 C            1.35410063       -1.96922873        3.13449055
 C            2.65419972       -0.03765315        3.42343051
 C            2.53443592       -1.26386686        2.66516264
 C            2.55729603        1.21035225        2.69853681
 C            0.78019628        1.11330731        4.22691339
 C            1.35750116        1.89344876        3.14844773
 C           -0.56390831       -0.81175796        4.22352807
 C           -0.58077860        0.63689443        4.07564274
 C           -1.43784635       -1.56137427        3.45342417
 C            0.46323980       -2.49929948        2.19672951
 C           -0.89164161       -2.52975703        2.51100950
 C            0.86510352       -2.61242726        0.85912465
 C            2.75534492       -1.21306497        1.29973148
 C            2.14440567       -2.17472100        0.51228942
 C            2.81624852        1.20059366        1.33629144
 C            3.13508100       -0.00620186        0.70322430
 C            2.28370326        2.22635000        0.57031100
 C            0.50881533        2.43415589        2.18623838
 C            1.03456966        2.75654650        0.92914659
 C           -1.37655702        1.20341277        3.08375053
 C           -0.87015423        2.27044150        2.32888765
 C           -2.53087644       -0.88510572        2.78012108
 C           -2.49405222        0.49523979        2.62913511
 C           -1.86399450       -2.69673104        1.45278163
 C           -2.91643827       -1.70707236        1.64619706
 C           -0.07370897       -2.89835988       -0.14877008
 C           -1.44116574       -2.97252944        0.16208833
 C            0.35395431       -3.03316046       -1.48086511
 C            2.59274844       -2.31306096       -0.78661487
 C            1.69649337       -2.84203825       -1.79235762
 C            3.40013054        0.00048065       -0.67252328
 C            3.33026251       -1.20604068       -1.37228917
 C            2.77310159        2.37646898       -0.71720469
 C            3.33970353        1.21039702       -1.37426656
 C            1.99232608        3.10592837       -1.68737919
 C            0.20835882        3.36316828       -0.03120950
 C            0.62360758        3.42484387       -1.35758415
 C           -1.70782506        2.93962777        1.44990573
 C           -1.16399520        3.41559774        0.19196953
 C           -3.33137433        1.06796112        1.68155096
 C           -3.02129942        2.39081553        1.17942996
 C           -3.50144552       -1.10855816        0.52868604
 C           -3.78600259        0.25920649        0.55871600
 C           -2.38597938       -2.80688503       -0.84152425
 C           -3.35487903       -1.73232375       -0.71042318
 C           -0.56834921       -2.94890091       -2.52355511
 C           -1.97788792       -2.85920748       -2.22482217
 C           -0.32000691       -2.02041069       -3.61421112
 C            2.03903385       -2.20955099       -3.05658525
 C            3.04644376       -1.19510398       -2.79462853
 C            0.97860349       -1.59735181       -3.83666227
 C            2.90830767        1.23504221       -2.76889052
 C            1.98570025        2.34339882       -2.92272345
 C            2.60541328        0.04146410       -3.40484563
 C            1.24707037       -0.16924781       -3.88774166
 C           -0.23360345        2.83433174       -2.37583685
 C            0.60276867        2.05272017       -3.25975988
 C            0.24441763        0.74454110       -3.54764566
 C           -2.04496522        2.95857576       -0.87147991
 C           -3.21610336        2.38110517       -0.26144840
 C           -3.59826138        1.04669149       -0.65119363
 C           -1.47428140        2.34682271       -1.98314884
 C           -3.22997999       -0.90917024       -1.90252021
 C           -2.48548124       -1.66180532       -2.88160127
 C           -1.36939089       -1.02276431       -3.53822239
 C           -1.02943011        0.28558835       -3.20207950
 C           -2.98914141        0.44767930       -1.74628151
 C           -1.83821878        1.02931924       -2.31854996
