   70
C70 / DATE: 7/ 1/2024 / Origin: Program Fullerene / C70 from database
 C            1.40257045       -0.10476758        4.20235909
 C            2.63097669       -0.46292335        3.53575998
 C            2.56321838       -1.87504940        3.19287564
 C            0.56636688       -1.29284617        4.27646656
 C            1.29022295       -2.39346287        3.66364882
 C           -0.74936389       -0.94260373        3.76207317
 C            0.59932034        0.96229594        3.64113621
 C           -0.77058297        0.49612346        3.57493382
 C            1.07948156        1.72940208        2.58166756
 C            3.00180482        0.26181959        2.33741501
 C            2.27653621        1.38036843        1.93206045
 C            2.89842403       -2.00614420        1.78260008
 C            3.36891152       -0.71077325        1.32864843
 C            2.06795588       -2.75763998        0.95389294
 C            0.59122089       -3.26993261        2.84645339
 C            1.14975063       -3.61799590        1.55057786
 C           -1.34550170       -1.76246162        2.80621804
 C           -0.82668602       -3.04177894        2.62309993
 C           -2.16299582       -1.18069960        1.82571741
 C           -1.58558349        1.02824229        2.58996319
 C           -2.46487292        0.18066085        1.91852644
 C            0.16247015        2.54436571        1.91525365
 C           -1.19800630        2.22284601        1.98268229
 C            0.62983794        3.38407609        0.90965230
 C            2.50922574        1.86012880        0.64176298
 C            1.86282067        3.02459159        0.24057505
 C            3.18553460       -0.36280377        0.00092724
 C            3.03838488        0.98770295       -0.31618088
 C            1.91020027       -2.36822555       -0.38460527
 C            2.69450840       -1.32358320       -0.88119543
 C            0.86891559       -2.88693876       -1.17297126
 C            0.06097831       -4.15565350        0.76696840
 C           -1.18068180       -3.79365202        1.44074993
 C           -0.06699271       -3.75291444       -0.61531435
 C           -2.53403036       -1.89478244        0.67363454
 C           -2.04037064       -3.17757002        0.45553118
 C           -1.47497408       -3.49215951       -0.84180862
 C           -3.09458261       -1.21523007       -0.41130010
 C           -3.37752807        0.73581238        1.03008128
 C           -3.63317442        0.05047044       -0.22079587
 C           -2.11452998        2.88149774        1.16981979
 C           -3.30027639        2.15979576        0.74847936
 C           -0.28650387        3.91401528       -0.08683108
 C           -1.64488982        3.65932044        0.03723926
 C            1.71506240        3.33045401       -1.17297805
 C            0.35744286        3.80771047       -1.38714624
 C            3.08957319        1.36420727       -1.65416687
 C            2.31606223        2.50448384       -2.11215709
 C            2.64076685       -1.01887010       -2.23571043
 C            2.98640373        0.32686108       -2.66295184
 C            0.55477980       -2.27926575       -2.39163818
 C            1.48195854       -1.44089491       -2.99650270
 C           -1.82785057       -2.69810771       -1.91874745
 C           -2.77042686       -1.61148140       -1.70801442
 C           -0.77872280       -2.19219832       -2.78881955
 C           -2.50174757       -0.59655207       -2.71421417
 C           -1.26216782       -0.95796583       -3.38687686
 C           -3.53485589        1.03020608       -1.29394727
 C           -3.45043776        2.34471961       -0.68511142
 C           -2.41767748        3.25984100       -1.13002234
 C           -2.76364215        0.73613833       -2.41707897
 C           -0.36890071        3.36212215       -2.48626679
 C           -1.76886915        3.00245961       -2.33034074
 C           -1.98343468        1.73017330       -3.00866712
 C            1.57650575        2.09532561       -3.29745535
 C            2.00427164        0.75435976       -3.64507960
 C            1.00758657       -0.29418180       -3.75888157
 C           -0.34724511        0.03161910       -3.72831103
 C            0.23150257        2.41924776       -3.41583705
 C           -0.74344753        1.36864556       -3.68152533
