   70
C70 / DATE: 7/ 1/2024 / Origin: Program Fullerene / C70 from database
 C            1.53773608        0.00796356        4.75258832
 C            0.75685324       -1.20208687        4.57231565
 C            1.45814277       -2.05653118        3.62720279
 C            2.69771546       -0.08455620        3.88672762
 C            2.72959228       -1.42023704        3.32088784
 C            2.67724076        1.04933579        2.97711715
 C            0.73121086        1.12115619        4.28816741
 C            1.45432265        1.79104424        3.21995937
 C           -0.60647061       -0.80885470        4.26724933
 C           -0.60231417        0.62170558        4.00109706
 C           -1.34936976       -1.63340003        3.43870964
 C            0.72628647       -2.67096129        2.60992128
 C           -0.66662301       -2.69311380        2.71288604
 C            1.34282356       -2.96477838        1.38663199
 C            3.26231848       -1.57086426        2.05235832
 C            2.61802612       -2.47431024        1.11635864
 C            3.08184357        0.85446083        1.66172360
 C            3.62713276       -0.37986520        1.30243771
 C            2.56478133        1.68301726        0.66398922
 C            0.72879803        2.24979947        2.12732238
 C            1.35587702        2.35410655        0.88223435
 C           -1.24898992        1.10811892        2.86776519
 C           -0.66044659        2.16608603        2.17554618
 C           -2.29661824       -1.03441508        2.51579713
 C           -2.20699553        0.32118080        2.21890495
 C           -1.47888988       -3.00790407        1.55248975
 C           -2.49565377       -1.97384348        1.42848194
 C            0.58714924       -3.44915556        0.32049407
 C           -0.86198965       -3.48290004        0.40980808
 C            0.94239363       -3.05713146       -1.03733171
 C            2.92703941       -2.00482174       -0.22805567
 C            3.67097144       -0.76177112       -0.09779069
 C            1.96895848       -2.14423955       -1.23306591
 C            3.04117485        1.52914655       -0.63187937
 C            3.50147503        0.21792593       -1.05727627
 C            2.30956882        2.10843839       -1.74128036
 C            0.63602889        2.89439477       -0.19257216
 C            1.12593588        2.79841379       -1.50042878
 C           -1.39041366        2.79013072        1.17995465
 C           -0.67961169        3.30267624        0.02464758
 C           -2.77457999        0.78713188        1.03143976
 C           -2.57774582        2.12228242        0.68831989
 C           -2.81698620       -1.47771131        0.16945108
 C           -3.16780845       -0.12800519        0.04768427
 C           -1.39464187       -3.10500506       -0.88577059
 C           -0.28033838       -2.93323873       -1.80266935
 C           -2.45905137       -2.21398120       -0.96702288
 C           -0.38325766       -1.96194502       -2.79173163
 C            1.84431544       -1.16270769       -2.22290449
 C            2.76036539       -0.11234352       -2.25622728
 C            2.36798650        1.15211135       -2.83936100
 C            0.69178539       -1.09503853       -3.02131445
 C            1.35520308        1.15704847       -3.78065432
 C            0.54621071       -0.04288236       -3.93087399
 C            0.28554759        3.06381459       -2.58337353
 C            0.45717013        2.29525739       -3.80438725
 C           -1.62263950        3.33385599       -1.07855776
 C           -2.79281803        2.56518925       -0.67855108
 C           -1.14140140        3.23898481       -2.37402452
 C           -3.67758156        0.33746916       -1.16136834
 C           -3.39538654        1.70028639       -1.57958288
 C           -2.75435063       -1.70505706       -2.22603932
 C           -1.66843244       -1.59056353       -3.18843059
 C           -3.56754363       -0.51193086       -2.32794694
 C           -0.78266452        0.37596146       -4.34652758
 C           -0.84877588        1.82399871       -4.22778590
 C           -1.84438599        2.42167463       -3.35267346
 C           -2.94236984        1.66300499       -2.96206937
 C           -1.87896539       -0.38083034       -3.96301214
 C           -3.05386977        0.28980861       -3.42612866
