   70
C70 / DATE: 7/ 1/2024 / Origin: Program Fullerene / C70 from database
 C            1.50971332        0.01767943        4.74940995
 C            0.72638432       -1.18397537        4.52990888
 C            1.38575953       -1.96904210        3.49918776
 C            2.65463674       -0.03820160        3.86066940
 C            2.67723031       -1.35104549        3.24273696
 C            2.61479166        1.12711572        2.99252522
 C            0.69387770        1.14726061        4.34499393
 C            1.37799732        1.83612043        3.26403808
 C           -0.64837669       -0.77900018        4.30901045
 C           -0.65407683        0.66202199        4.10137064
 C           -1.42522412       -1.56273870        3.47366340
 C            0.62047638       -2.45488799        2.43584071
 C           -0.76219899       -2.51130202        2.58702205
 C            1.18061630       -2.54257128        1.15631899
 C            3.21968603       -1.45187978        1.97420866
 C            2.53290051       -2.25787993        0.98406563
 C            3.02021488        0.97760848        1.67119650
 C            3.61045316       -0.22930637        1.29381145
 C            2.44218056        1.78483739        0.68816553
 C            0.61689787        2.28604738        2.19329477
 C            1.19632672        2.37596403        0.92481496
 C           -1.35438219        1.19024289        3.01778454
 C           -0.77086129        2.23310192        2.29881565
 C           -2.46419930       -0.92324109        2.69193989
 C           -2.37360233        0.44057050        2.42026601
 C           -1.60656786       -2.67224586        1.41874106
 C           -2.78000530       -1.83688201        1.61391350
 C            0.36081205       -2.64348912        0.02523256
 C           -1.03037143       -2.73652251        0.15650284
 C            0.93169673       -2.56797852       -1.24843310
 C            3.00473284       -1.81094999       -0.31621912
 C            3.71852826       -0.55805923       -0.11431670
 C            2.16653505       -1.93764698       -1.41663055
 C            2.92079593        1.69259307       -0.61486632
 C            3.55368679        0.45471325       -1.04358196
 C            2.10533970        2.17683382       -1.71587462
 C            0.42465235        2.86017414       -0.13871449
 C            0.80699366        2.60509916       -1.46282804
 C           -1.52559517        2.87921875        1.33554715
 C           -0.85180746        3.34234482        0.13707424
 C           -3.03798948        0.95983227        1.30440037
 C           -2.77530663        2.27218404        0.92086872
 C           -3.43212184       -1.33930073        0.49984188
 C           -3.66783833        0.09204685        0.40679995
 C           -1.84815160       -2.53633037       -0.95828220
 C           -3.02107270       -1.79708172       -0.81640797
 C            0.13338557       -2.80816312       -2.35909364
 C           -1.30074149       -2.64928211       -2.22920080
 C            0.52084618       -2.24528970       -3.63928968
 C            2.38072108       -1.11285328       -2.52537442
 C            3.00537344        0.11930592       -2.34263119
 C            2.36897065        1.31833862       -2.85747483
 C            1.62041710       -1.30187276       -3.67442394
 C            1.39959027        1.18456344       -3.83785196
 C            1.17096986       -0.13241931       -4.41159311
 C           -0.14706707        2.56499630       -2.49290069
 C            0.10275096        1.80653036       -3.63458744
 C           -1.83625589        3.38246387       -0.92015904
 C           -3.02491156        2.68941836       -0.44785601
 C           -1.48113748        2.83026373       -2.20610945
 C           -3.74515414        0.42627619       -1.01021181
 C           -3.29850464       -0.73023196       -1.76577279
 C           -3.38555004        1.69101813       -1.43670156
 C           -2.47431324        1.82677897       -2.55816199
 C           -1.72367363       -1.70546556       -3.25125215
 C           -0.64774642       -1.59414657       -4.21330399
 C           -0.25506423       -0.27783742       -4.65350046
 C           -0.91989852        0.86925475       -4.07189339
 C           -2.45263280       -0.57967689       -2.86340055
 C           -2.05454109        0.70597799       -3.27508232
