   70
C70 / DATE: 7/ 1/2024 / Origin: Program Fullerene / C70 from database
 C            1.18295654       -0.07783487        4.63438530
 C            2.49238971       -0.36412377        4.08101441
 C            2.45502078       -1.71216457        3.54097187
 C            0.34690252       -1.24775921        4.41394953
 C            1.07438583       -2.16491443        3.56870340
 C           -0.94062101       -0.78936711        3.96050646
 C            0.45137138        1.08597650        4.16018143
 C           -0.89978728        0.65886088        3.84727896
 C            1.07611239        2.00123264        3.32740373
 C            3.02754328        0.50887937        3.05301066
 C            2.40874729        1.72535426        2.79854986
 C            3.15049625       -1.70331815        2.26907576
 C            3.44220999       -0.31812851        1.93000859
 C            2.68644660       -2.54133309        1.27215445
 C            0.49123386       -2.61642582        2.38345375
 C            1.33855506       -3.08786483        1.38271884
 C           -1.59341518       -1.48528077        2.95683262
 C           -0.83305835       -2.26489331        2.06289111
 C           -2.75196286       -0.88034558        2.49674754
 C           -1.60653934        1.24928054        2.79640904
 C           -2.73488144        0.56768392        2.35190655
 C            0.30167344        2.63232573        2.27194735
 C           -0.93932404        2.11065072        1.91389850
 C            2.46001073        2.26612598        1.45513963
 C            1.23369978        3.01384953        1.23053989
 C            3.22984572        0.13815062        0.62525005
 C            2.97317434        1.49715418        0.41315832
 C            2.85940383       -2.13652433       -0.10562353
 C            3.02762762       -0.78682202       -0.41032164
 C            0.83428114       -3.26561297        0.03412520
 C            1.91344414       -2.91724094       -0.87395735
 C           -1.33369689       -2.54860390        0.77724338
 C           -0.46109443       -2.86260460       -0.26412206
 C           -3.42702688       -1.43669128        1.35297115
 C           -2.66388557       -2.28897661        0.47201703
 C           -3.29665101        0.87968436        1.05598636
 C           -3.93111564       -0.32439592        0.56773486
 C           -1.37514083        2.25283156        0.58753952
 C           -2.55643401        1.63570512        0.16048944
 C            0.77639809        3.14073211       -0.07202310
 C           -0.58217319        2.95231160       -0.33390411
 C            2.76031366        1.95918721       -0.87896351
 C            1.69606749        2.92514306       -1.09382347
 C            2.72345744       -0.34488341       -1.70138036
 C            2.71597113        1.01498243       -1.97695934
 C            1.59124363       -2.48709906       -2.14584549
 C            2.13263500       -1.22042572       -2.61158064
 C           -0.80108733       -2.56156690       -1.59075614
 C            0.20233755       -2.52718012       -2.55905681
 C           -3.01417276       -1.91955550       -0.88644775
 C           -3.74732839       -0.66191824       -0.82445535
 C           -2.07989197       -2.08565109       -1.90664812
 C           -2.82806432        1.52551330       -1.20581887
 C           -3.38428136        0.33836266       -1.71601100
 C           -1.04391284        3.13800724       -1.63703127
 C           -2.25351540        2.45832389       -2.06349055
 C            1.22855335        2.77687266       -2.45670196
 C            1.80191029        1.54370423       -2.98176081
 C           -0.09284708        3.08221862       -2.73907198
 C            1.21494828       -0.70379526       -3.61757369
 C            0.08096304       -1.61841501       -3.68042375
 C            1.00823364        0.67143861       -3.72713212
 C           -2.27109574       -1.34240424       -3.07602187
 C           -3.01537402       -0.09853111       -2.98182114
 C           -1.17088836       -1.12635364       -4.00253874
 C           -2.11612414        2.15918734       -3.47745289
 C           -0.73243844        2.40113008       -3.84613988
 C           -0.16893216        1.14402048       -4.30745796
 C           -2.46702557        0.83564061       -3.93976118
 C           -1.27677694        0.22848383       -4.51411608
