   70
C70 / DATE: 7/ 1/2024 / Origin: Program Fullerene / C70 from database
 C            1.71104598       -0.02247877        4.39252340
 C            0.88331662       -1.21361459        4.33410018
 C            1.38926499       -2.06222030        3.26865269
 C            2.65543750       -0.08732639        3.29225088
 C            2.52188703       -1.38331447        2.66465929
 C            2.46913006        1.08524432        2.46346291
 C            0.84997225        1.12250377        4.16377202
 C            1.36180479        1.84598641        3.01533710
 C           -0.50233146       -0.79189198        4.28453439
 C           -0.52295820        0.65435702        4.11735025
 C           -1.39293078       -1.56018126        3.55250022
 C            0.48615822       -2.71777705        2.43040915
 C           -0.88346546       -2.62802786        2.70068854
 C            0.91095051       -3.10027877        1.15260618
 C            2.65811944       -1.46762821        1.28910341
 C            2.10824675       -2.57331693        0.65566616
 C            2.54285731        0.93841950        1.08189061
 C            2.87339463       -0.30473552        0.53856211
 C            1.88779365        1.86354184        0.27715119
 C            0.44839386        2.40301293        2.13153806
 C            0.84340262        2.62608422        0.81465563
 C           -1.37769549        1.21920602        3.17337802
 C           -0.91254013        2.30071844        2.41393821
 C           -2.46482652       -0.90000187        2.82882051
 C           -2.48658413        0.48727194        2.73061140
 C           -1.84952396       -2.82293073        1.62952675
 C           -2.74520974       -1.67998038        1.63489297
 C           -0.01439492       -3.65892225        0.27148649
 C           -1.41586997       -3.32610191        0.41677998
 C            0.26287654       -3.66916045       -1.15049069
 C            2.48904774       -2.81028873       -0.65823377
 C            1.56401673       -3.46137331       -1.57163344
 C            3.00243283       -0.42578323       -0.84820936
 C            3.11157288       -1.71537175       -1.37740399
 C            2.06836391        1.79875182       -1.10092407
 C            2.63014971        0.65047987       -1.67165033
 C            1.45052614        2.75073477       -1.91004460
 C            0.00208707        3.35683118       -0.02596853
 C            0.35652793        3.53352716       -1.36027659
 C           -1.80416908        2.99847599        1.61043236
 C           -1.32876507        3.55670291        0.35304025
 C           -3.31495088        1.03916688        1.75912290
 C           -3.10581594        2.41550935        1.36647401
 C           -3.02394788       -1.00368330        0.44838179
 C           -3.56890992        0.26729802        0.54904079
 C           -1.82041780       -2.65161632       -0.80629469
 C           -0.81365000       -2.93385360       -1.80573691
 C           -2.37069036       -1.37958095       -0.72875849
 C           -0.49867896       -1.97405510       -2.76206364
 C            1.77107289       -2.88284466       -2.88535766
 C            2.88603759       -1.95578422       -2.78617419
 C            0.67151865       -2.16122418       -3.49833078
 C            2.57999760        0.49624420       -3.05896281
 C            2.58790701       -0.83117768       -3.63888680
 C            1.26115762       -1.04751354       -4.20187107
 C            1.10922723        2.41750296       -3.28587622
 C            1.56965414        1.21977024       -3.80001641
 C            0.57834047        0.22209274       -4.16723275
 C           -0.69848836        3.56797432       -2.35650021
 C           -0.30291788        2.70368131       -3.44749291
 C           -2.39037596        3.39429120       -0.63497061
 C           -3.38123448        2.51399707       -0.05466601
 C           -3.48718678        1.16589744       -0.58265273
 C           -2.02861672        3.16922625       -1.95201659
 C           -2.05800149       -0.42133018       -1.70559116
 C           -1.10240151       -0.70483401       -2.70344137
 C           -0.68499153        0.30430576       -3.58906687
 C           -1.22471478        1.57946996       -3.48170417
 C           -2.70887727        0.81883109       -1.68369536
 C           -2.26755746        1.84309557       -2.51514499
