   70
C70 / DATE: 7/ 1/2024 / Origin: Program Fullerene / C70 from database
 C            1.21436141       -0.02178975        4.65333041
 C            2.50063216       -0.16933168        4.00018762
 C            2.47632677       -1.41470247        3.25063013
 C            0.39168844       -1.16097848        4.27737781
 C            1.13161491       -1.95335846        3.32202574
 C           -0.90883965       -0.66568854        3.88750062
 C            0.44193123        1.18523458        4.41855437
 C           -0.89995918        0.78483140        4.01653644
 C            1.04519264        2.27321101        3.80148184
 C            2.96116654        0.87788108        3.10546354
 C            2.29663989        2.09703035        3.07137952
 C            3.04286438       -1.16189800        1.93632682
 C            3.35722243        0.25129122        1.85535968
 C            2.45481935       -1.76438214        0.82698080
 C            0.51599965       -2.31979486        2.13233297
 C            1.32192335       -2.55393525        1.02274733
 C           -1.55340733       -1.22791554        2.79256015
 C           -0.85698847       -2.10177627        1.94474634
 C           -2.63853843       -0.53159184        2.29023020
 C           -1.62770049        1.54988084        3.09920677
 C           -2.62576913        0.92118490        2.35916219
 C            0.21536314        3.18609231        3.04111891
 C           -1.10546085        2.75304738        2.62239033
 C            2.17200903        2.79489387        1.80477106
 C            0.95145514        3.57620252        1.85053490
 C            3.12792012        0.89614985        0.64601584
 C            2.48736048        2.14065049        0.61853190
 C            2.67580109       -1.20356453       -0.43469894
 C            3.12267984        0.12467779       -0.51324896
 C            2.15347109       -1.85085526       -1.56411237
 C            0.76426843       -3.20474082       -0.06187124
 C            1.25400058       -2.89690126       -1.39278276
 C           -1.45245720       -2.54615060        0.75285207
 C           -0.68085690       -3.30148826       -0.13277081
 C           -3.19804243       -0.91111815        1.01376307
 C           -2.66881610       -1.99479375        0.32313727
 C           -2.93996503        1.41637840        1.02894109
 C           -3.48682143        0.30767164        0.27429682
 C           -1.25282983        3.08751960        1.21115616
 C            0.04552194        3.50285061        0.71682388
 C           -2.05731510        2.28646767        0.40743515
 C            1.83451246        2.53555978       -0.55063926
 C            0.50619579        2.95419442       -0.47203455
 C            3.06419636        0.80382407       -1.72115164
 C            2.30029676        2.03528353       -1.75789637
 C            2.24880281       -1.26364674       -2.82114075
 C            2.79011022        0.07080532       -2.93586589
 C            1.12442840       -1.36472874       -3.74155410
 C            0.14192710       -3.04221144       -2.31979324
 C           -1.04033919       -3.38089779       -1.53655372
 C            0.04015252       -2.18254061       -3.41536847
 C           -3.07588622       -2.14487732       -1.00346606
 C           -2.28018948       -2.92059499       -1.93744816
 C           -3.34048466        0.27673478       -1.10504205
 C           -3.54058523       -0.96165123       -1.70714224
 C           -1.68295512        2.03299744       -0.91507317
 C           -0.42129498        2.43568317       -1.37497947
 C           -2.48449269        1.20806332       -1.71076513
 C            1.38353268        1.94051089       -2.87934825
 C            1.86129185        0.86203345       -3.72376217
 C            0.88728243       -0.03869936       -4.30235742
 C            0.01489738        2.06470114       -2.64893581
 C           -2.20739449        1.11987436       -3.07351400
 C           -0.41843097        0.40848275       -4.42494084
 C           -0.88021658        1.47485299       -3.54053183
 C           -1.21361472       -1.90505467       -3.96181653
 C           -2.41193658       -2.30987555       -3.24866025
 C           -3.26257323       -1.13652045       -3.11475869
 C           -1.46995563       -0.58285999       -4.50516263
 C           -2.63574351       -0.04583412       -3.82670197
