   70
C70 / DATE: 7/ 1/2024 / Origin: Program Fullerene / C70 from database
 C            1.16413239        0.08473277        4.35889278
 C            2.42058013       -0.22594143        3.71819000
 C            2.41647349       -1.64747439        3.42132981
 C            0.33423420       -1.11169413        4.32173524
 C            1.05387739       -2.12459290        3.58428701
 C           -0.97886572       -0.72178832        3.85796169
 C            0.37309878        1.17411185        3.82822726
 C           -1.00814488        0.73033787        3.78619191
 C            0.85214074        1.94005006        2.76970863
 C            2.76662265        0.47324403        2.49549511
 C            1.92558967        1.47215646        1.99616290
 C            3.06123542       -1.83196542        2.13431115
 C            3.30553491       -0.51213774        1.57380623
 C            2.57800432       -2.82615190        1.29971184
 C            0.43824015       -2.75891195        2.50830509
 C            1.25917178       -3.38085760        1.56703653
 C           -1.59631633       -1.44946115        2.84969703
 C           -0.89616869       -2.46762896        2.18317392
 C           -2.71642278       -0.87656536        2.25496923
 C           -1.87673383        1.34758508        2.88713496
 C           -2.85443470        0.57332304        2.26502079
 C           -0.04402446        2.83628567        2.20625169
 C           -1.46860382        2.53959086        2.29068400
 C            0.21495373        3.37650170        0.88878269
 C            1.99553427        1.78084670        0.63025639
 C            1.17792339        2.77861162        0.08714570
 C            3.12761075       -0.29750549        0.21279820
 C            2.77622013        0.97945556       -0.20727591
 C            2.67902639       -2.64470089       -0.13522158
 C            2.93069916       -1.37716882       -0.65546485
 C            0.71041161       -3.83842254        0.30246457
 C            1.65081737       -3.46695278       -0.74487508
 C           -1.48778646       -3.10169547        1.08930120
 C           -0.65365063       -3.73029461        0.07918357
 C           -3.20511961       -1.36832101        0.97920072
 C           -2.59504991       -2.46457725        0.39863792
 C           -3.39816135        0.97587233        0.97649733
 C           -3.52663896       -0.21672866        0.15445737
 C           -2.08646642        2.99031728        1.05252534
 C           -1.06902680        3.72825774        0.31329646
 C           -2.98079063        2.15915207        0.37680578
 C           -1.17281636        3.83841259       -1.06326343
 C            1.13245868        2.97860322       -1.29578962
 C           -0.01269976        3.52610357       -1.88333915
 C            2.86505236        1.26916925       -1.55855613
 C            2.06748532        2.34709721       -2.10777508
 C            2.63914165       -1.12478933       -1.99935429
 C            2.83877567        0.16109221       -2.49642084
 C            1.18293742       -3.11794664       -2.00288047
 C            1.80052955       -1.99920627       -2.69716160
 C           -1.14512029       -3.31595579       -1.22697536
 C           -2.26253116       -2.41440095       -1.01396699
 C           -0.25063474       -3.04753366       -2.25113957
 C           -3.11056202       -0.16604424       -1.17402924
 C           -2.31444694       -1.19393554       -1.68866121
 C           -3.11680681        2.27660967       -1.00468076
 C           -2.33545206        3.27029798       -1.71605324
 C           -3.14219561        1.06591648       -1.81429803
 C           -0.49917664        2.99215920       -3.14970894
 C           -1.90363727        2.68197717       -2.97191731
 C           -2.30782013        1.28706631       -2.97838414
 C            1.68394400        1.96724753       -3.45541955
 C            2.09798646        0.59138737       -3.66888293
 C            0.28842598        2.07655118       -3.83041069
 C            0.79990081       -1.46840762       -3.61096111
 C           -0.49120710       -1.90442929       -3.11470173
 C           -1.44081096       -0.94798645       -2.75789332
 C           -1.37618588        0.32114741       -3.33938656
 C            0.93186548       -0.17002013       -4.07448333
 C           -0.21612654        0.72092365       -4.01030599
