   70
C70 / DATE: 7/ 1/2024 / Origin: Program Fullerene / C70 from database
 C            1.61069840       -0.00608524        4.61866909
 C            0.76267126       -1.16284798        4.42644657
 C            1.36699531       -1.99019628        3.39864901
 C            2.64783025       -0.04871486        3.60011466
 C            2.41360676       -1.20490983        2.76860049
 C            2.67372580        1.24096249        2.96194350
 C            0.79849750        1.16972245        4.36207929
 C            1.55576985        2.01503016        3.47968797
 C           -0.59093993       -0.68951302        4.20639331
 C           -0.50006893        0.73054613        3.90515955
 C           -1.41624246       -1.47645923        3.42554262
 C            0.52477501       -2.71876357        2.57364521
 C           -0.84995586       -2.66607497        2.81188084
 C            0.95487888       -2.99605728        1.28067692
 C            2.38982527       -1.05848072        1.38168790
 C            1.78271918       -2.06650831        0.63206742
 C            2.91077479        1.31919781        1.59197702
 C            2.62093833        0.19794527        0.79048517
 C            2.74198129        2.58761268        1.04819899
 C            0.87761790        2.78940426        2.55632006
 C            1.70979430        3.41733493        1.64869285
 C           -0.97493763        1.21203854        2.68073011
 C           -0.37657074        2.33859658        2.09342814
 C           -2.21522158       -0.83958704        2.39719726
 C           -1.85532029        0.42609804        1.93176793
 C           -1.76169179       -3.05181476        1.74839262
 C           -2.56441873       -1.87739828        1.43934387
 C            0.17770584       -3.86689611        0.52911127
 C           -1.26384999       -3.80788207        0.69825144
 C            0.45495161       -4.02258160       -0.88191553
 C            1.79511335       -1.98155243       -0.76069213
 C            1.29025190       -3.03359329       -1.52417614
 C            2.36653835        0.35952848       -0.58338223
 C            2.08481623       -0.76063056       -1.37022346
 C            2.63017637        2.74763755       -0.38254304
 C            2.32597041        1.63816776       -1.16085578
 C            1.11339538        4.21018492        0.61082846
 C            1.89342474        3.98113536       -0.59118374
 C           -0.86830602        2.81207579        0.86431703
 C           -0.26364542        3.93072913        0.28354065
 C           -2.13886994        0.76551107        0.60826594
 C           -1.71408367        1.99684737        0.09232214
 C           -2.75547805       -1.51994031        0.11222553
 C           -2.78159841       -0.16419872       -0.21482279
 C           -1.83289773       -3.62281547       -0.62239609
 C           -0.82087645       -4.03544737       -1.57789459
 C           -2.57976792       -2.47911315       -0.89319147
 C            0.69900499       -2.75769004       -2.82129725
 C           -0.66655492       -3.26505237       -2.79907488
 C            1.82239391       -0.59129775       -2.72735947
 C            0.96980853       -1.53944894       -3.42392344
 C            1.73373335        1.82792688       -2.41719306
 C            1.48887503        0.72693093       -3.22065479
 C            0.97084666        4.05067852       -1.69956435
 C           -0.37274833        4.14360163       -1.14133563
 C            0.95449555        2.95727490       -2.64778982
 C           -2.02358452        2.34744950       -1.23550477
 C           -1.21347686        3.25391156       -1.90256863
 C           -0.43079423        2.76652727       -3.02597831
 C           -3.21056033        0.21707428       -1.47365509
 C           -2.69206907        1.43787242       -2.04466075
 C           -2.75256294       -2.11026869       -2.22469593
 C           -1.70979947       -2.43401537       -3.19023899
 C           -3.23753292       -0.77867218       -2.52712036
 C           -0.10533041       -0.78527850       -4.05456516
 C            0.20271711        0.63127034       -3.90156497
 C           -0.80407576        1.55510718       -3.59965882
 C           -2.09269929        1.09963876       -3.32831485
 C           -1.41859341       -1.22619676       -3.94330393
 C           -2.46219535       -0.26558786       -3.64534057
