   70
C70 / DATE: 7/ 1/2024 / Origin: Program Fullerene / C70 from database
 C            1.23972323        0.04719472        4.71184140
 C            2.48530598       -0.06218200        3.98320427
 C            2.55692957       -1.41653585        3.47029350
 C            0.42082252       -1.10671694        4.35583712
 C            1.21496591       -1.95504081        3.49528736
 C           -0.84901927       -0.61267721        3.85972247
 C            0.43256405        1.22635553        4.49796871
 C           -0.92516424        0.77054560        4.26064710
 C            0.77084515        2.11994769        3.40065555
 C            2.72439424        0.83214909        2.86047586
 C            1.74137787        1.74418299        2.47826976
 C            3.22625493       -1.35706803        2.18546121
 C            3.39639068        0.05011561        1.84417934
 C            2.81002872       -2.22043384        1.17568651
 C            0.68363320       -2.38604484        2.28945907
 C            1.56638075       -2.85046610        1.31755494
 C           -1.25873473       -0.95690924        2.56995840
 C           -0.60386336       -1.98989999        1.90030220
 C           -2.10864086       -0.10023586        1.85246680
 C           -1.51550366        1.69333135        3.32950343
 C           -0.48537994        2.63339621        2.91457736
 C           -2.34524882        1.20071345        2.33420753
 C           -0.57427302        3.11814617        1.61797177
 C            1.54227847        2.01527490        1.11829670
 C            0.44505846        2.79903437        0.70267259
 C            3.27047170        0.41871812        0.51154997
 C            2.43824065        1.49041248        0.17499899
 C            3.28243736       -1.94447597       -0.10290933
 C            3.54046079       -0.55738254       -0.44573031
 C            2.67704721       -2.58758635       -1.25352212
 C            1.02786725       -3.56626175        0.25819506
 C            1.67187433       -3.51690888       -1.04322828
 C           -1.09874677       -2.43562480        0.67732327
 C           -0.40237994       -3.46166432        0.03947784
 C           -2.47611378       -0.43929769        0.53617356
 C           -1.97757439       -1.61771615       -0.05083543
 C           -3.26043817        0.44639635       -0.21813585
 C           -2.79374295        2.16311876        1.44792332
 C           -1.87170039        3.24429682        1.14118589
 C           -3.41004163        1.75727795        0.21257591
 C           -2.08233312        3.63199712       -0.22831070
 C           -3.18213020        2.83231084       -0.73609090
 C            0.26700653        3.09077187       -0.66385934
 C           -0.97784998        3.49270501       -1.14460030
 C            2.32356631        1.85089625       -1.16136830
 C            1.18872444        2.63557136       -1.59514475
 C            3.14074347       -0.35393480       -1.82639970
 C            2.51609297       -1.57987999       -2.29504738
 C            2.59850053        0.86376168       -2.19335277
 C            1.33181138       -1.52386586       -3.03216530
 C            0.63653493       -3.66380620       -2.04683249
 C           -0.64299470       -3.73694797       -1.35562611
 C            0.51011697       -2.64923483       -3.07784691
 C           -2.32601526       -1.95623829       -1.37146660
 C           -1.56718680       -2.89198402       -2.06988578
 C           -0.90990375       -2.48173051       -3.30141584
 C           -3.50983245        0.18141726       -1.56005751
 C           -3.07099108       -1.06795660       -2.13581542
 C           -2.87377750        2.47635940       -2.10380020
 C           -1.49656827        2.88816129       -2.36399624
 C           -3.29029043        1.23421267       -2.54882913
 C            0.70989626        2.07807288       -2.85441633
 C            1.49670172        0.88953406       -3.13691044
 C            0.84779197       -0.29175672       -3.49039366
 C           -0.65566296        2.07657383       -3.12998272
 C           -1.35225699       -1.32716158       -3.92022717
 C           -2.63021538       -0.79166913       -3.49407835
 C           -2.58164637        0.64625594       -3.66150262
 C           -0.43062419       -0.20541585       -4.04060485
 C           -1.19599515        1.02350190       -3.87151563
