   70
C70 / DATE: 7/ 1/2024 / Origin: Program Fullerene / C70 from database
 C            1.50314095       -0.19526849        4.95991284
 C            0.64943623       -1.36306837        4.92371258
 C            1.19340466       -2.26903227        3.92807297
 C            2.54826716       -0.38189678        3.96634330
 C            2.26296774       -1.59201272        3.22719508
 C            2.64224408        0.84802127        3.22107851
 C            0.70772189        0.94068455        4.52921661
 C            1.51320446        1.67928961        3.58838530
 C           -0.65752237       -0.94159300        4.44467906
 C           -0.57459803        0.45213103        4.06809654
 C            0.08145397       -2.73379264        3.14104450
 C           -1.05884204       -1.88557575        3.43003338
 C            0.29145566       -3.01588930        1.80456301
 C            2.20831251       -1.53089293        1.83215438
 C            1.37370793       -2.41902572        1.13944741
 C            2.93772394        0.79075115        1.86734768
 C            2.71770516       -0.40749427        1.16554542
 C            2.78809822        1.98025588        1.16612679
 C            0.88161325        2.32982069        2.54163790
 C            1.71186066        2.80132165        1.53543848
 C           -1.00602516        0.82824706        2.79559600
 C           -0.41455813        1.93371093        2.17431373
 C           -1.77827648       -1.42995361        2.33107411
 C           -1.77091308       -0.06069475        2.02838206
 C           -0.85268905       -3.22309332        1.06097131
 C           -1.90499742       -2.32244588        1.27012963
 C           -0.66304682       -3.74883057       -0.19989757
 C            1.34838516       -2.37994034       -0.26380591
 C            0.48170770       -3.24675474       -0.93500030
 C            2.66908346       -0.36709330       -0.23508912
 C            1.81014014       -1.23320518       -0.91789853
 C            3.26168246        1.99490185       -0.13597905
 C            3.16424409        0.75962767       -0.88799817
 C            2.92202917        3.09694507       -1.01109911
 C            1.13068003        3.65045607        0.60919337
 C            1.83044117        3.95878260       -0.61980460
 C           -0.93009218        2.38581367        0.95413004
 C           -0.27010657        3.43153552        0.30470233
 C           -2.22136399        0.34140102        0.76733978
 C           -1.79300420        1.56119251        0.22281034
 C           -2.70433237       -1.95163431        0.19385176
 C           -2.88700590       -0.58333609       -0.04185280
 C           -1.79390395       -3.79727498       -1.09513987
 C           -2.87821543       -2.87887545       -0.83326338
 C            0.01159360       -2.89935884       -2.26375712
 C           -1.29875964       -3.50445802       -2.42479255
 C            1.24876861       -0.84583322       -2.14876027
 C            0.23525756       -1.61126922       -2.73407084
 C            2.67732880        1.09082265       -2.21333545
 C            2.61154220        2.54196597       -2.31549647
 C            1.65474905        0.33530143       -2.77152179
 C            0.85372252        3.96339980       -1.69211266
 C           -0.44287053        3.61793844       -1.12333242
 C            1.37859527        3.15473324       -2.78002646
 C           -2.10186356        1.88399219       -1.10761537
 C           -1.26494813        2.74600840       -1.82059223
 C           -3.48712983       -0.13693063       -1.21460314
 C           -3.00002231        1.08876711       -1.81906071
 C           -3.37579393       -2.45437982       -2.12245004
 C           -2.33325643       -2.75140550       -3.09906815
 C           -3.75912843       -1.07029656       -2.29100155
 C           -0.66959672       -1.01523025       -3.62722387
 C           -2.72693509        0.80875407       -3.22354528
 C           -1.97435893       -1.49946065       -3.72535584
 C           -3.06420957       -0.57907644       -3.46438410
 C            0.78747225        0.95691866       -3.66351538
 C            0.48688610        2.36793954       -3.48994770
 C           -0.91705709        2.42238994       -3.12982976
 C           -0.46624715        0.30903193       -3.99702342
 C           -1.53495729        1.27352073       -3.75327521
