   70
C70 / DATE: 7/ 1/2024 / Origin: Program Fullerene / C70 from database
 C            1.25276401        0.07529320        4.29352524
 C            2.53261159       -0.19758499        3.67901805
 C            2.58080536       -1.62006328        3.40706648
 C            0.43358452       -1.12374349        4.17691018
 C            1.22595236       -2.13506422        3.51845496
 C           -0.82613243       -0.73803163        3.58210838
 C            0.47139937        1.17633890        3.77675097
 C           -0.89351043        0.70864263        3.61530772
 C            0.99959425        1.99183917        2.78154705
 C            2.87130526        0.49467919        2.44792953
 C            2.03140101        1.49834318        1.97008941
 C            3.27618209       -1.80372323        2.14743239
 C            3.38130587       -0.49521713        1.51446806
 C            2.90088830       -2.88289450        1.36496378
 C            0.69974122       -2.83156108        2.43401073
 C            1.61551194       -3.50998854        1.63565932
 C           -1.27224369       -1.38656185        2.44153038
 C           -0.54775018       -2.46038330        1.89320545
 C           -2.26805733       -0.76875099        1.69248301
 C           -1.69419917        1.36630998        2.68590447
 C           -2.48618739        0.61020437        1.81536264
 C            0.13150770        2.93602584        2.25151306
 C           -1.29253143        2.64281867        2.29362183
 C            0.41282328        3.51616524        0.95523300
 C            2.02760037        1.77875442        0.60053469
 C            1.36666408        2.91763416        0.14057527
 C            3.07871643       -0.36322593        0.16021234
 C            2.54524588        0.84327010       -0.30859071
 C            3.00290326       -2.76458303       -0.07433049
 C            3.05461223       -1.50007513       -0.65568583
 C            1.16966200       -4.13433440        0.41221204
 C            2.10345687       -3.75677511       -0.63614020
 C           -1.02887776       -3.09558576        0.73258000
 C           -0.16254566       -3.84298293       -0.06028812
 C           -2.88645258       -1.49044343        0.68439235
 C           -2.18972844       -2.62785592        0.12211025
 C           -3.55366451       -0.79506975       -0.40150977
 C           -3.28406845        1.27265928        0.88168578
 C           -3.75993989        0.57208740       -0.29889026
 C           -1.91411192        3.28300280        1.14639102
 C           -0.85942097        3.93551428        0.38542176
 C           -2.94226443        2.62807054        0.48381047
 C           -0.97200448        4.05602963       -0.99328107
 C            1.37422387        3.21734864       -1.21530939
 C            0.22377977        3.89002442       -1.79890660
 C            2.40056541        1.04164148       -1.68534511
 C            1.81944018        2.21192068       -2.15661287
 C            2.68697681       -1.37400848       -1.99109440
 C            2.37850605       -0.06320590       -2.52527915
 C            1.33361480       -3.40757832       -1.81599212
 C           -0.07477258       -3.53770135       -1.48062381
 C            1.74029836       -2.32006591       -2.56812269
 C           -2.19841724       -2.47279594       -1.32534510
 C           -3.07973088       -1.36703099       -1.65244707
 C           -1.00987548       -2.66020464       -2.02892660
 C           -2.75910945       -0.53804703       -2.71622062
 C           -3.53104403        1.42979818       -1.45189924
 C           -3.03777387        2.70912032       -0.96587769
 C           -2.07154918        3.40228095       -1.68910497
 C           -3.02063865        0.89002991       -2.62768960
 C           -0.14462390        3.18017894       -3.01211698
 C            0.82180326        2.11735568       -3.21342109
 C           -1.55112736        2.84245287       -2.92805155
 C           -1.96322446        1.58351381       -3.34597766
 C            1.27054698       -0.21125542       -3.45608283
 C            0.74065830       -1.55255906       -3.28292988
 C           -0.60893798       -1.71593237       -2.98545421
 C           -1.49234277       -0.72329537       -3.40257813
 C            0.39344348        0.85578771       -3.62142592
 C           -0.97323760        0.59304384       -3.75247034
