   70
C70 / DATE: 7/ 1/2024 / Origin: Program Fullerene / C70 from database
 C            1.51642838        0.18184362        5.03625392
 C            0.72006345       -1.00639990        4.80017456
 C            1.60466820       -1.98029433        4.20598976
 C            2.69071399        0.09346146        4.18039401
 C            2.79473207       -1.27433389        3.74216183
 C            2.57722754        1.13488152        3.17748046
 C            0.74360602        1.31738619        4.58122426
 C            1.59049006        2.07427152        3.68114414
 C           -0.47152542       -0.61548357        4.05979210
 C           -0.52651137        0.83352319        4.06007990
 C           -0.81148365       -1.30663690        2.89742524
 C            1.11062532       -2.74071441        3.08110877
 C           -0.18884922       -2.53343433        2.62650628
 C            2.91827602       -1.54154897        2.32265182
 C            2.16812053       -2.75547892        2.09043447
 C            2.57076209        0.81023254        1.81254819
 C            2.79717902       -0.50923163        1.38954575
 C            2.07874139        1.75645906        0.90537691
 C            0.95041320        2.87642049        2.76084672
 C            1.45675793        2.89575724        1.40437849
 C           -1.05356660        1.49154270        2.95499176
 C           -0.48558162        2.71431528        2.62003424
 C           -1.50346528       -0.63386150        1.87849030
 C           -1.68652244        0.75568144        1.94539377
 C           -1.93471262       -1.34052310        0.75187833
 C           -0.53079615       -3.21231470        1.46671253
 C           -1.55366855       -2.66727641        0.59948817
 C            1.80344264       -3.05082960        0.78908266
 C            0.55871593       -3.64378053        0.60745314
 C            2.51138299       -0.86955760        0.06989624
 C            2.27662747       -2.21883478       -0.22295159
 C            1.85494180        1.40422110       -0.42799167
 C            2.16397514        0.11193702       -0.86298703
 C            1.18845224        2.29734202       -1.28236988
 C            0.41010075        3.51398187        0.62152887
 C           -0.82921134        3.30597992        1.35402628
 C            0.37440621        3.30173795       -0.74862463
 C           -2.22244419        1.43681890        0.84073024
 C           -1.89605580        2.78993455        0.64312898
 C           -2.44627464       -0.65335825       -0.34979334
 C           -2.77350476        0.69882534       -0.21559868
 C           -2.47218848       -1.27868530       -1.60901911
 C           -1.29794880       -3.17881577       -0.73518114
 C            0.03756032       -3.76455023       -0.73788564
 C           -1.71214161       -2.42705627       -1.82721260
 C            2.01987551       -2.59219849       -1.53574627
 C            0.89130043       -3.47663640       -1.79263677
 C            2.01025755       -0.23575059       -2.20904804
 C            2.02742653       -1.57902676       -2.57192091
 C            1.08985015        2.00078735       -2.63768874
 C            1.50627153        0.69662666       -3.11287310
 C           -0.10751099        2.38201820       -3.37335445
 C           -0.83829167        3.58681636       -1.37611374
 C           -2.05492728        3.33235135       -0.62187308
 C           -1.06717028        3.16315454       -2.74359951
 C           -3.39553591        1.37160115       -1.26671294
 C           -3.02044420        2.74337874       -1.51359886
 C           -2.47525917        2.81901092       -2.85869277
 C           -2.94090687       -0.59124436       -2.72260903
 C           -3.49764034        0.73194084       -2.56118395
 C           -2.85373971        1.59917256       -3.54043974
 C            0.56408568        0.27143257       -4.14252891
 C           -0.50708720        1.25131450       -4.20057274
 C           -2.12329118       -0.57674481       -3.92260662
 C           -1.83074128        0.81602639       -4.20927250
 C           -1.05629485       -2.58658847       -3.04991809
 C            0.30419571       -3.08375269       -3.05571188
 C            1.13790581       -2.03950875       -3.62361997
 C           -1.11261231       -1.52021858       -4.03441367
 C            0.25832618       -1.07751628       -4.26200147
