   70
C70 / DATE: 7/ 1/2024 / Origin: Program Fullerene / C70 from database
 C            1.47550561        0.03877812        5.08245056
 C            0.67892834       -1.17260265        4.99488963
 C            1.45890645       -2.16517691        4.27959187
 C            2.65187081       -0.14511557        4.25090874
 C            2.68625668       -1.52733297        3.83115099
 C            2.63792258        0.88127225        3.22537978
 C            0.69705770        1.12221375        4.50897966
 C            1.46594855        1.71153659        3.42759234
 C           -0.62981990       -0.81081769        4.47981288
 C           -0.62728432        0.61668108        4.19974243
 C           -1.26224463       -1.66146014        3.58387359
 C            0.86222447       -2.83386006        3.13440382
 C           -0.49796676       -2.70241049        2.90078748
 C            2.83354704       -1.80461698        2.41749776
 C            1.78057434       -2.71239644        2.01438925
 C            2.97702909        0.55924054        1.91709159
 C            3.15942698       -0.78078864        1.53929198
 C            2.63287661        1.47796702        0.92613789
 C            0.77493847        2.15710686        2.30291881
 C            1.42844244        2.17675795        1.06357277
 C           -1.24407797        1.08210867        3.04103687
 C           -0.61766890        2.10366972        2.32453431
 C           -2.17981981       -1.09355890        2.61302196
 C           -2.19141430        0.28129353        2.39258636
 C           -0.98117045       -2.77224519        1.53443000
 C           -2.18642368       -1.97200335        1.46226812
 C            1.28736246       -2.59423455        0.71327567
 C           -0.08460213       -2.72028734        0.46944270
 C            3.08853606       -1.07521751        0.18342534
 C            2.08745688       -1.96291728       -0.24598047
 C            3.16468855        1.27658388       -0.33966267
 C            3.52601414       -0.08318869       -0.67888666
 C            2.48504020        1.83373586       -1.49162320
 C            0.71267406        2.58078791       -0.07312448
 C            1.16636007        2.24708696       -1.35117002
 C           -1.31209177        2.69835752        1.28616768
 C           -0.57817593        3.06071936        0.08757993
 C           -2.77834705        0.75304859        1.21518753
 C           -2.54452491        2.07656329        0.85374076
 C           -2.53797690       -1.42822652        0.23990231
 C           -3.13116522       -0.17063587        0.22359555
 C           -0.57800692       -2.38021212       -0.79012153
 C           -1.87564855       -1.86579353       -0.90452775
 C            1.64977581       -1.93723402       -1.57553303
 C            0.31372286       -2.24077863       -1.85053969
 C            3.33619936       -0.25372994       -2.09785841
 C            2.85229518        1.01322263       -2.62214543
 C            2.41409339       -1.27591424       -2.53524679
 C            1.83687048        0.70636910       -3.59827894
 C            1.76529788       -0.74336010       -3.71463441
 C            0.25532080        2.09725194       -2.41693204
 C            0.64676523        1.42397140       -3.59297348
 C           -1.50370011        2.99980676       -1.02569740
 C           -2.77295936        2.49647396       -0.51390045
 C           -1.05977548        2.57533678       -2.27621964
 C           -3.65842557        0.27805154       -0.98332289
 C           -3.54045466        1.68634037       -1.33160962
 C           -2.34999099       -1.44552602       -2.14725807
 C           -3.37206568       -0.49116662       -2.18480124
 C           -0.19451680       -2.07000442       -3.13750063
 C            0.56238499       -1.29895227       -4.11455177
 C           -1.59887876       -1.72426608       -3.28948494
 C           -0.31785519        0.99302188       -4.49733672
 C           -0.37750623       -0.42699392       -4.79587135
 C           -1.71378483       -0.87783751       -4.46592872
 C           -2.03086311        2.25645664       -3.22492271
 C           -3.31567040        1.76474148       -2.76227010
 C           -3.47845040        0.42849075       -3.30327025
 C           -1.67546585        1.46525984       -4.37940677
 C           -2.55352104        0.30055862       -4.40806668
