   70
C70 / DATE: 7/ 1/2024 / Origin: Program Fullerene / C70 from database
 C            1.40600084        0.13726587        4.80507786
 C            0.63875777       -1.08502210        4.64691495
 C            1.36151941       -1.95007517        3.73009601
 C            2.61192319        0.00128268        4.01022045
 C            2.68256724       -1.37073701        3.54329024
 C            2.62667724        1.06268403        3.01602028
 C            0.62262352        1.21674358        4.23455932
 C            1.36523086        1.77429233        3.12234140
 C           -0.71911211       -0.70953463        4.30594266
 C           -0.71014752        0.70911725        3.97663164
 C           -1.43960736       -1.56317111        3.48359064
 C            0.67661532       -2.49054414        2.63773133
 C           -0.71259126       -2.54146919        2.68391516
 C            1.33484234       -2.64708538        1.41298340
 C            3.33766464       -1.60197131        2.34813752
 C            2.71784353       -2.48735569        1.38207241
 C            3.13033698        0.76798174        1.74968327
 C            3.78934912       -0.45152843        1.58491861
 C            2.58205273        1.40884953        0.62807542
 C            0.67981570        2.07585751        1.95663177
 C            1.38034177        2.12166787        0.76020383
 C           -1.37034324        1.12424350        2.82376476
 C           -0.71041496        1.96815925        1.91887730
 C           -2.46370527       -0.99572643        2.62590418
 C           -2.45696774        0.37148720        2.37983695
 C           -1.46066903       -2.75370267        1.46070215
 C           -2.64154491       -1.90439860        1.50794034
 C            0.59934631       -2.68836966        0.21353303
 C           -0.78668637       -2.89564229        0.25541837
 C            1.22340841       -2.43290616       -1.02060314
 C            3.37825123       -2.22514397        0.12245356
 C            4.05586557       -0.94127376        0.25075170
 C            2.58253480       -2.17266121       -1.08217512
 C            3.08226718        1.11604295       -0.64908303
 C            3.65627044       -0.12952100       -0.87543047
 C            3.01660774       -1.01349994       -1.83329995
 C            2.53236496        1.75315769       -1.75528297
 C            0.74192990        2.63913277       -0.36225987
 C            1.43431351        2.67544313       -1.56435259
 C           -1.38213336        2.38928796        0.77050173
 C           -0.64736587        2.80713288       -0.34522868
 C           -3.19250101        0.84243376        1.30390183
 C           -2.71420335        2.01964780        0.61139616
 C           -3.16377966       -1.41130814        0.31505960
 C           -3.63746737       -0.10062297        0.28622821
 C           -1.53768955       -2.78215080       -0.91143761
 C           -2.78318645       -2.02721639       -0.87373172
 C            0.45210217       -2.07038585       -2.12036697
 C           -0.87424318       -2.46883380       -2.15940017
 C            2.13434943       -0.44682576       -2.74505906
 C            2.19235511        0.93502066       -2.90841909
 C            0.93020438       -1.10435085       -3.01732911
 C            0.70420787        2.74313190       -2.81786985
 C            1.13685026        1.61482943       -3.63692312
 C           -1.32083015        3.17251706       -1.51406850
 C           -0.63308761        3.11245482       -2.79352983
 C           -3.30158795        1.99849335       -0.71329762
 C           -3.71469134        0.62507077       -0.97425217
 C           -2.68668063        2.71821719       -1.72291191
 C           -2.91777446       -1.32430263       -2.14131857
 C           -1.82025549       -1.75587442       -2.99577423
 C           -3.33592700        0.00562593       -2.16397028
 C            0.07535926       -0.56165698       -3.97847729
 C            0.19815095        0.84787540       -4.31550471
 C           -1.33993510       -0.89711261       -3.96990485
 C           -1.54917903        2.54584985       -3.76896324
 C           -2.78300093        2.21332303       -3.07870936
 C           -3.04006380        0.79662135       -3.27362389
 C           -1.13596448        1.37864667       -4.52482634
 C           -2.08756412        0.31239238       -4.25792278
