   70
C70 / DATE: 7/ 1/2024 / Origin: Program Fullerene / C70 from database
 C            1.48408231       -0.09176847        5.07255720
 C            0.68672559       -1.30317140        5.00707897
 C            1.53772466       -2.34372938        4.47267494
 C            2.65517383       -0.29796119        4.23659014
 C            2.71160271       -1.70048067        3.89513796
 C            2.59700035        0.66740171        3.15997589
 C            0.70539390        0.98269418        4.48015795
 C            1.48373373        1.56259242        3.41259070
 C           -0.55427727       -0.98043795        4.31818150
 C           -0.59525429        0.46145812        4.13803184
 C           -1.02873188       -1.79591564        3.28397447
 C            0.98874156       -3.22559345        3.46667939
 C           -0.33735716       -2.95834686        2.93108960
 C            2.76984624       -2.07350478        2.49196581
 C            1.90678559       -3.22202990        2.33973864
 C            2.81009911        0.26476760        1.84417069
 C            2.74122280       -1.09058995        1.49896512
 C            2.50927335        1.18970136        0.85691266
 C            0.81535522        2.06045604        2.30076612
 C            1.54283511        2.16140970        1.12822237
 C           -1.21642072        0.94377953        2.99685460
 C           -0.56819102        1.89016465        2.18763014
 C           -1.92392573       -1.24564766        2.35940400
 C           -2.17100355        0.13089684        2.41284674
 C           -2.19251213       -1.94645249        1.17687810
 C           -0.28911560       -3.34231954        1.53300561
 C            1.10684575       -3.30828490        1.13852799
 C           -1.21515569       -2.78973758        0.65898725
 C            2.31036900       -1.43936626        0.20677568
 C            1.43844053       -2.52143368        0.04537352
 C            2.71407100        0.82457785       -0.46471813
 C            2.39983270       -0.48623822       -0.82267640
 C            2.61319679        1.83401389       -1.40951166
 C            0.96935446        2.82696822        0.05851185
 C            1.76194807        2.95946801       -1.07250186
 C           -1.19608492        2.28846398        0.99337321
 C           -0.42272933        2.76125085       -0.08171640
 C           -3.01100263        0.71414222        1.48229451
 C           -2.50694611        1.86588612        0.75472806
 C           -3.16684792       -1.46350999        0.30958571
 C           -3.70521054       -0.14049183        0.54634761
 C           -2.96904110       -1.60736728       -1.12605076
 C           -0.84419100       -2.62936687       -0.67575943
 C            0.51146194       -2.45842187       -0.97897841
 C           -1.81241747       -2.22800809       -1.59965730
 C            1.76066268       -0.73160926       -2.05238459
 C            0.86781357       -1.80553267       -2.14359006
 C            2.33677493        1.49188024       -2.78590637
 C            1.81602539        0.23321441       -3.07215391
 C            1.17010617        3.45159466       -2.29388666
 C            1.73637344        2.67531166       -3.38208656
 C           -0.99644895        2.84186816       -1.36107727
 C           -0.26731302        3.38400612       -2.41598823
 C           -2.99500554        1.77219023       -0.61071841
 C           -3.77429566        0.55801875       -0.72340605
 C           -3.42196039       -0.37944466       -1.76768342
 C           -2.13784060        2.09763178       -1.64827249
 C           -2.71280236        0.08224073       -2.86957390
 C           -2.22570441        1.39827509       -2.85842878
 C           -1.42445100       -1.98303615       -2.91613230
 C           -0.00726532       -1.90555908       -3.21164265
 C           -2.04748211       -0.87907237       -3.62162687
 C            1.10888782        0.04564713       -4.26294283
 C            0.16380529       -1.04345836       -4.35845493
 C           -1.13781326       -0.47040249       -4.67288153
 C            0.69718372        2.50881486       -4.37462226
 C           -0.55720241        2.94383052       -3.77058396
 C           -1.53138891        1.88424526       -3.96582055
 C            0.48313081        1.18462160       -4.91827871
 C           -0.94849012        0.94480649       -4.90687289
