   70
C70 / DATE: 7/ 1/2024 / Origin: Program Fullerene / C70 from database
 C            1.60964814        0.10839619        4.68702639
 C            0.82882458       -1.10495293        4.53439470
 C            1.48309844       -1.93834013        3.53910644
 C            2.71865395        0.03760932        3.75209457
 C            2.74556974       -1.29943515        3.19662815
 C            2.61334011        1.15886567        2.83448145
 C            0.76709285        1.22097082        4.28942833
 C            1.42643384        1.91172761        3.20353733
 C           -0.55057145       -0.71748605        4.30920738
 C           -0.57140793        0.71670533        4.05818589
 C           -1.33066185       -1.53560607        3.50910931
 C            0.70573322       -2.52344281        2.53537648
 C           -0.67721340       -2.54836714        2.69014096
 C            1.26388619       -2.76386465        1.27519472
 C            3.23173014       -1.45250849        1.91167604
 C            2.59773760       -2.42534559        1.05018147
 C            2.88410996        0.94897121        1.47784497
 C            3.44901228       -0.26482010        1.09324756
 C            2.22520589        1.73677133        0.52390484
 C            0.65303104        2.42421651        2.17950485
 C            1.28098548        2.66138739        0.97062931
 C           -1.28625963        1.20199684        2.96321405
 C           -0.73092673        2.22223120        2.17774936
 C           -2.36449989       -0.92982283        2.69111763
 C           -2.34010407        0.44037286        2.45616117
 C           -1.52153781       -2.78558276        1.53672233
 C           -2.62006775       -1.83038554        1.58090481
 C            0.44719023       -3.09401595        0.18305245
 C           -0.94701683       -3.08807481        0.31083363
 C            1.02601239       -3.23868689       -1.08043268
 C            3.03164278       -2.10334933       -0.29256282
 C            3.36432031       -0.68717319       -0.29228272
 C            2.30754559       -2.61057970       -1.35423977
 C            2.26357905        1.38971515       -0.83643549
 C            2.76378586        0.14301697       -1.23105752
 C            1.64761308        2.22098695       -1.78168795
 C            0.61794434        3.46108664        0.06139384
 C            0.91187153        3.32017827       -1.34782861
 C           -1.47478430        2.77135650        1.12770301
 C           -0.82071135        3.59371879        0.20856219
 C           -3.08319830        0.93470037        1.39394084
 C           -2.69117941        2.18730529        0.77583561
 C           -3.12075498       -1.31602017        0.38672386
 C           -3.50214463        0.02483581        0.33499075
 C           -1.74990552       -2.95595031       -0.81917904
 C           -2.83847626       -1.99123599       -0.79892183
 C            0.21068734       -3.09532669       -2.27654038
 C           -1.15983977       -2.93964614       -2.14494850
 C            2.13245761       -1.78270821       -2.53227647
 C            2.36840090       -0.41015952       -2.44905029
 C            0.94619848       -2.26542038       -3.21908115
 C            1.47399282        1.77263869       -3.09226008
 C            1.86099236        0.41885112       -3.43951401
 C            0.23756152        2.08107494       -3.80552033
 C           -0.28675532        3.70002050       -2.07338906
 C           -1.37971122        3.77877479       -1.11835246
 C           -0.71531683        2.86622427       -3.17613436
 C           -3.10320520        2.12956772       -0.62135946
 C           -3.43133685        0.74930765       -0.92560410
 C           -2.43081719        2.88701986       -1.56515860
 C           -1.98315788        2.25399963       -2.79515444
 C           -2.80210618       -1.26063660       -2.05617718
 C           -1.85722953       -1.93237092       -2.93098696
 C           -2.87583879        0.12938404       -2.04110342
 C           -2.17277673        0.88261707       -2.98973961
 C            0.26239704       -1.39935071       -4.06232615
 C            0.86187358       -0.10931376       -4.35387173
 C           -0.20799201        0.86514926       -4.45450087
 C           -1.16684644       -1.18893302       -3.87579703
 C           -1.42580822        0.23715997       -3.97633162
