   70
C70 / DATE: 7/ 1/2024 / Origin: Program Fullerene / C70 from database
 C            1.05588957       -0.03065481        4.70821050
 C            2.34996115       -0.30443762        4.14043970
 C            2.30895852       -1.66410873        3.61881531
 C            0.26334871       -1.24245563        4.55759663
 C            0.91556207       -2.02876106        3.53196605
 C           -1.09950015       -0.82365855        4.33771847
 C            0.27006838        1.04284592        4.13865663
 C           -1.09837403        0.63080446        4.33426738
 C            0.63018238        1.59584508        2.90246123
 C            2.80987079        0.52784363        3.05073358
 C            1.89801651        1.32881496        2.35586829
 C            3.08297180       -1.65945801        2.40088027
 C            3.68236153       -0.33821544        2.29129378
 C            2.54274562       -2.22609109        1.25028290
 C            0.33085101       -2.13444940        2.26719535
 C            1.14605080       -2.34287897        1.13951791
 C           -1.75995828       -1.23343967        3.11567674
 C           -1.02836906       -1.83061556        2.09441632
 C           -2.06163193        1.04686600        3.34984843
 C           -2.64954707       -0.14774596        2.76830018
 C           -0.36407149        2.18281541        2.10012666
 C           -1.71769210        2.05937004        2.47192232
 C           -0.03373058        2.58119085        0.79610061
 C            2.14580796        1.60393757        1.00565423
 C            1.11321890        2.07031197        0.19649143
 C            4.07448465        0.07569890        1.03329033
 C            3.33245038        1.16770577        0.41847624
 C            3.30661903       -2.09228178        0.09852559
 C            4.20562318       -0.95290104        0.02109108
 C            2.68848747       -2.24669487       -1.20116986
 C            0.54546136       -2.49290449       -0.12003657
 C            1.32121436       -2.48169944       -1.28745329
 C           -1.55329374       -1.79467365        0.80875465
 C           -0.84466991       -2.40698240       -0.21658339
 C           -3.10963059       -0.04712724        1.45898898
 C           -2.63723684       -0.95414198        0.50654918
 C           -2.69383405        2.35136827        1.53427521
 C           -3.46345543        1.22541320        1.02493854
 C           -0.97336771        3.23703105        0.00756008
 C           -2.35600845        3.19872564        0.41890213
 C           -0.94163805        3.04717378       -1.43375152
 C            1.18008261        1.93459419       -1.19974748
 C            0.07560970        2.27564994       -1.98804047
 C            3.38121306        0.97171875       -1.01986395
 C            4.00022482       -0.32019213       -1.26143331
 C            3.28891171       -1.26659154       -2.09471525
 C            2.28358555        1.32255582       -1.79838152
 C            2.49586358       -0.74783532       -3.10058135
 C            2.10512649        0.65267009       -3.00671345
 C            0.70003051       -2.31075476       -2.52657841
 C            1.29809438       -1.47383775       -3.46882144
 C           -1.46711115       -2.58610875       -1.44396730
 C           -0.65478474       -2.59483221       -2.64389663
 C           -3.04871636       -0.82569031       -0.82376698
 C           -2.66902265       -1.82112027       -1.72434073
 C           -3.70211664        1.45291993       -0.38433695
 C           -3.14488439        2.75510938       -0.71313006
 C           -2.31164480        2.86061174       -1.89341097
 C           -3.52198470        0.41292350       -1.29056916
 C           -2.54569748        1.96083615       -2.92015887
 C           -3.33355308        0.77403795       -2.62447613
 C           -0.13270222        1.63573873       -3.21602618
 C            0.85083362        0.79425329       -3.72225345
 C            0.47863702       -0.53012432       -4.20443924
 C           -1.42552762        1.51326944       -3.71991712
 C           -1.42578927       -1.96845461       -3.70766923
 C           -2.70850892       -1.56994294       -3.15251632
 C           -2.99241289       -0.22986816       -3.60995990
 C           -0.86133476       -0.82511640       -4.40445699
 C           -1.82661803        0.25619548       -4.33262944
