   70
C70 / DATE: 7/ 1/2024 / Origin: Program Fullerene / C70 from database
 C            1.62420516        0.03912108        4.53982748
 C            0.80013299       -1.15555122        4.50678727
 C            1.23438792       -1.97213548        3.38880519
 C            2.57937806       -0.05163813        3.44992124
 C            2.41629271       -1.34232555        2.82063542
 C            2.43140837        1.12352331        2.61609581
 C            0.75800919        1.17140853        4.26966190
 C            1.27050073        1.84803713        3.10085550
 C           -0.58322418       -0.73416073        4.54329241
 C           -0.60716281        0.69229116        4.23647112
 C           -1.52173997       -1.54955730        3.93179312
 C            0.27206686       -2.50870642        2.52661442
 C           -1.06871526       -2.49285049        2.91117177
 C            0.60732340       -2.71285460        1.18253472
 C            2.58921582       -1.42467221        1.45116007
 C            1.91732705       -2.43872077        0.78940336
 C            2.58524216        0.97952656        1.23562955
 C            2.92534572       -0.27550062        0.72562177
 C            1.94237526        1.89045401        0.39357707
 C            0.38145774        2.32382823        2.15526020
 C            0.90446731        2.66673052        0.91817210
 C           -1.46734053        1.15897639        3.24059607
 C           -0.98417561        2.01304219        2.23968031
 C           -2.72875759       -0.92359220        3.43304928
 C           -2.65600757        0.46668325        3.02321448
 C           -2.10100023       -2.57678183        1.89465255
 C           -3.18369586       -1.69436449        2.29424051
 C           -0.39629423       -2.78154746        0.20378293
 C           -1.73781383       -2.62023793        0.55285770
 C           -0.03642991       -2.77728844       -1.14685866
 C            2.30610976       -2.70495978       -0.51069526
 C            1.28485196       -3.05406909       -1.47445473
 C            3.12447249       -0.41571763       -0.64784102
 C            3.14614811       -1.71735595       -1.15357777
 C            2.07575431        1.74404006       -0.99155645
 C            2.79408974        0.64890642       -1.49709217
 C            1.38668614        2.61019504       -1.85658997
 C            0.09828821        3.40311455        0.07287670
 C            0.39522640        3.43772678       -1.34163947
 C           -1.81080109        2.34727702        1.16125339
 C           -1.33831205        3.27491614        0.23638509
 C           -3.33013914        0.57948793        1.74017931
 C           -3.70773206       -0.76213436        1.31592165
 C           -2.84805486        1.48078106        0.79572980
 C           -2.63243274       -2.13169266       -0.39809719
 C           -3.57843068       -1.09090688       -0.02293463
 C           -0.84365743       -2.10557782       -2.06975247
 C           -2.15965745       -1.83191532       -1.73882364
 C           -0.26186577       -1.40921948       -3.13050729
 C            1.79004235       -2.67847548       -2.78501352
 C            3.03502289       -1.95027449       -2.57723668
 C            0.95583474       -1.85757600       -3.63697195
 C            2.99101728        0.51704091       -2.87324536
 C            3.02765640       -0.80789623       -3.46133829
 C            1.84642334       -0.92714524       -4.29940020
 C            1.32074286        2.32215764       -3.21653948
 C            2.20307360        1.32388190       -3.77691604
 C            1.37357334        0.41217101       -4.55524872
 C           -0.79008583       -0.16780298       -3.52290022
 C            0.01301722        2.11763055       -3.82085050
 C           -0.00402860        0.73456430       -4.24120729
 C           -0.87143065        3.52057423       -2.04784352
 C           -1.93591233        3.31873927       -1.08046044
 C           -1.09731718        2.61556709       -3.15956953
 C           -3.14324470        1.26489702       -0.55756066
 C           -3.43968774       -0.02203440       -0.99166445
 C           -2.72386379       -0.55654343       -2.13815315
 C           -1.95696338        0.30840998       -2.91354388
 C           -2.72030378        2.18282505       -1.51021688
 C           -2.14088875        1.68525677       -2.75140977
