   70
C70 / DATE: 7/ 1/2024 / Origin: Program Fullerene / C70 from database
 C            1.16023274        0.01036700        4.36937201
 C            2.47817443       -0.38467418        3.92760322
 C            2.42596346       -1.80127795        3.60140205
 C            0.32201978       -1.17757421        4.33215351
 C            1.02691698       -2.18206995        3.56966832
 C           -0.97333006       -0.76356494        3.86280905
 C            0.45879605        1.04618705        3.63022845
 C           -0.93419804        0.67530904        3.66154560
 C            0.99130710        1.51725968        2.43718763
 C            3.04991508        0.29387761        2.78686482
 C            2.35395575        1.32766366        2.16641843
 C            3.22182189       -2.01347604        2.40901172
 C            3.68933908       -0.70885083        1.95207618
 C            2.75968789       -2.92299283        1.47331511
 C            0.47801374       -2.64513368        2.37033818
 C            1.33241264       -3.23217858        1.43704679
 C           -1.60663913       -1.51819116        2.88601522
 C           -0.80298225       -2.21931250        1.97193010
 C           -2.81549934       -0.99798326        2.45075891
 C           -1.80156081        1.18387639        2.70742034
 C           -2.96376802        0.44475894        2.54720807
 C            0.12057451        1.95586532        1.42613673
 C           -1.27059764        1.83586382        1.57838101
 C            0.64284688        2.53316962        0.26719278
 C            2.86913287        1.78617275        0.96776125
 C            2.02354890        2.55439549        0.08186171
 C            3.82304384       -0.44679650        0.58614423
 C            3.64587572        0.86404905        0.14791630
 C            3.21782438       -2.78426770        0.10863026
 C            3.70800445       -1.48958500       -0.33390365
 C            0.92976901       -3.29444462        0.04654477
 C            2.12297978       -3.16515554       -0.76329286
 C           -1.15245439       -2.24292891        0.60680729
 C           -0.21707350       -2.62283316       -0.34969546
 C           -3.30995712       -1.35812143        1.14435316
 C           -2.38675018       -1.74982461        0.18043369
 C           -3.91168784        0.85196680        1.54752291
 C           -4.30186063       -0.35090318        0.82827969
 C           -2.11046892        2.12456756        0.48602882
 C           -3.47084334        1.80822727        0.56127527
 C           -0.18995133        2.80106093       -0.82212674
 C           -1.55252519        2.47925946       -0.75375004
 C            0.39811893        3.12296952       -2.04682777
 C            2.56472069        2.38043799       -1.25188179
 C            3.29837917        1.12366589       -1.23893869
 C            1.74129067        2.65248338       -2.32428162
 C            3.12992984       -1.23639047       -1.64689923
 C            2.09825335       -2.23118006       -1.86684567
 C            2.87607929        0.07225491       -2.05265286
 C           -0.29521497       -2.08431273       -1.63491737
 C            0.87727803       -1.78596286       -2.34052524
 C           -2.56277593       -1.38588537       -1.16645978
 C           -1.50601418       -1.54249051       -2.07312238
 C           -4.48138767        0.02655592       -0.54929804
 C           -4.17514253        1.44749235       -0.64574751
 C           -3.67418673       -0.63179025       -1.55354865
 C           -2.32505420        2.37943001       -1.93081925
 C           -3.49917342        1.63927640       -1.90210601
 C           -3.51156419        0.35961835       -2.59327198
 C           -0.34682907        2.92458487       -3.26810516
 C           -1.70648170        2.45680111       -3.17246854
 C            1.59590233        1.63108228       -3.33935134
 C            1.85927769        0.30672963       -2.98643791
 C            0.88396275       -0.68510385       -3.18313835
 C            0.39643899        1.96619312       -4.07874289
 C           -1.53862934       -0.87741032       -3.30553575
 C           -2.54274284        0.14685422       -3.55699542
 C           -1.84138821        1.31564720       -4.06119296
 C           -0.28603355       -0.41396006       -3.87917484
 C           -0.50702242        0.90065269       -4.44358784
