   70
C70 / DATE: 7/ 1/2024 / Origin: Program Fullerene / C70 from database
 C            1.22516624        0.04594788        4.63543967
 C            2.57856736       -0.12254026        4.14276600
 C            2.66302340       -1.43957548        3.53979418
 C            0.44486954       -1.10394365        4.20188568
 C            1.31619407       -1.98185313        3.45447542
 C           -0.75035134       -0.61438152        3.55577598
 C            0.49581877        1.24381154        4.26511266
 C           -0.78292398        0.82876610        3.70227596
 C            1.18348401        2.30063383        3.68114766
 C            3.10368478        0.83694034        3.18473298
 C            2.45841307        2.05417795        3.01509098
 C            3.43117679       -1.31949471        2.31365829
 C            3.53556666        0.09802644        2.00763360
 C            3.12596280       -2.18799673        1.27947555
 C            0.88987679       -2.49264126        2.23089174
 C            1.87201931       -2.92120990        1.34854046
 C           -1.14194324       -1.15858450        2.34065582
 C           -0.37733220       -2.15767844        1.72495501
 C           -2.05886796       -0.44889781        1.57860308
 C           -1.37771333        1.58397462        2.69213281
 C           -2.16317218        0.93784315        1.73588535
 C            0.44042253        3.23264975        2.85767001
 C           -0.87980172        2.85142610        2.39248771
 C            2.36054917        2.60933586        1.67823405
 C            1.24308445        3.52663857        1.67995304
 C            3.18452569        0.54616595        0.73098425
 C            2.53584165        1.77771448        0.57771909
 C            3.24842188       -1.71591851       -0.08763303
 C            3.23915342       -0.34912320       -0.34162197
 C            1.50185602       -3.26272238       -0.00268041
 C            2.42567988       -2.59127062       -0.90364896
 C           -0.76276525       -2.61385103        0.45214183
 C            0.16467757       -3.29624516       -0.35361620
 C           -2.62032209       -1.05817424        0.46309034
 C           -1.97199060       -2.15881651       -0.10299427
 C           -3.58414447       -0.35772016       -0.26159583
 C           -2.68347557        1.69358081        0.68868827
 C           -3.60343776        1.09054213       -0.16130716
 C           -0.99569274        3.34167772        1.03117894
 C            0.35333109        3.53131799        0.53407078
 C           -1.90507915        2.73248696        0.18361849
 C            1.89295930        2.08527474       -0.62507043
 C            0.72214980        2.85265877       -0.62545668
 C            2.88591485        0.08475665       -1.61373703
 C            2.23340563        1.37157125       -1.76297422
 C            1.94061140       -2.13898156       -2.12943129
 C            2.26227404       -0.84754124       -2.54642868
 C           -0.08804052       -3.43908519       -1.70937538
 C            0.79731566       -2.75354037       -2.63909930
 C           -2.39738278       -2.64486920       -1.33937009
 C           -1.43987761       -3.30748322       -2.19239202
 C           -3.86831828       -0.71820353       -1.64110728
 C           -3.21221857       -1.80574522       -2.19907575
 C           -3.74593482        1.62178521       -1.50651552
 C           -3.99556784        0.51060444       -2.40662186
 C           -1.61515818        2.73001106       -1.17617926
 C           -0.27670727        2.58604642       -1.57005719
 C           -2.64538542        2.39806663       -2.04515577
 C            1.27952500        1.26796368       -2.85008424
 C            1.32586514       -0.09182437       -3.36601183
 C            0.05029954        1.90647300       -2.75172440
 C           -0.04040211       -2.05299286       -3.59867623
 C           -1.38730440       -2.57921615       -3.44944580
 C           -2.50316812       -1.65729936       -3.46740240
 C            0.14913667       -0.68886342       -3.81127160
 C           -3.16148249        0.69776369       -3.57833462
 C           -2.32543990        1.86647891       -3.35040359
 C           -0.95383317        1.49893187       -3.62318040
 C           -2.30153287       -0.39141161       -4.00052269
 C           -0.94405602        0.12765206       -4.11056232
