   70
C70 / DATE: 7/ 1/2024 / Origin: Program Fullerene / C70 from database
 C            1.47133026        0.07362263        4.89925893
 C            0.70959151       -1.14567544        4.69676905
 C            1.61557337       -2.12016820        4.13510790
 C            2.69177601       -0.03755725        4.11743799
 C            2.83912372       -1.42600181        3.75272594
 C            2.63582228        0.95514315        3.05764250
 C            0.69846592        1.16314210        4.34169725
 C            1.51657984        1.83175839        3.34596838
 C           -0.49371258       -0.80775791        3.95073549
 C           -0.58417444        0.63839226        3.90502069
 C           -0.82596205       -1.53402041        2.80727072
 C            1.17300477       -2.87298023        2.98175886
 C           -0.11988763       -2.70658808        2.50021001
 C            3.09985963       -1.74758795        2.36467562
 C            2.25893993       -2.87903142        2.01939244
 C            2.86115572        0.57964745        1.73158918
 C            3.25708282       -0.73317516        1.42556005
 C            2.39413587        1.42283704        0.71388339
 C            0.84970450        2.40850605        2.27679480
 C            1.46773462        2.42931285        1.02755504
 C           -1.15191094        1.23199370        2.78694644
 C           -0.53932526        2.38284280        2.30657667
 C           -1.63667538       -0.92951397        1.83350324
 C           -1.87109677        0.44754655        1.87984016
 C           -2.07727172       -1.67211598        0.73867870
 C           -0.40970129       -3.36281967        1.31727256
 C           -1.55600068       -2.94750705        0.54201719
 C            1.94674314       -3.09820245        0.67803283
 C            0.68106237       -3.60098303        0.37918977
 C            3.30574974       -1.13065287        0.09700009
 C            2.63111126       -2.36273784       -0.29059115
 C            2.69378203        1.12961230       -0.61934551
 C            3.09146661       -0.15806398       -0.95206622
 C            2.18100699        1.92787944       -1.63449761
 C            0.83361974        3.14414390        0.00776043
 C            1.27619350        3.00959263       -1.30441894
 C           -1.21124172        3.10510001        1.34351160
 C           -0.43128244        3.67410617        0.26209690
 C           -2.47267281        1.09069432        0.79107353
 C           -2.36296004        2.48051391        0.72792532
 C           -2.73382000       -1.04186528       -0.32260666
 C           -2.80676766        0.35886595       -0.36051634
 C           -2.98238831       -1.79166911       -1.47348742
 C           -1.31047810       -3.40862782       -0.80919416
 C            0.13405392       -3.45350381       -0.95982195
 C           -2.05489544       -2.84847470       -1.82445876
 C            2.04029200       -2.15094059       -1.60600504
 C            2.43570796       -0.83424120       -2.06127882
 C            0.75255721       -2.59631229       -1.86858908
 C            1.68037861        1.28441925       -2.83978952
 C            1.57135931       -0.10468142       -2.86564326
 C            0.34890199        3.16936867       -2.42040337
 C            0.61713900        2.11113672       -3.38326394
 C           -1.35731493        3.90768677       -0.83012382
 C           -2.57494552        3.16711105       -0.52463136
 C           -0.95941362        3.56916658       -2.18213061
 C           -3.17841279        1.02811689       -1.54661341
 C           -2.91239352        2.38562002       -1.68486979
 C           -2.05665375        2.82505239       -2.77599341
 C           -3.30205658       -1.12311755       -2.71419410
 C           -3.36006946        0.31607275       -2.72749945
 C           -1.34734796       -2.36014108       -2.98765021
 C           -0.02422447       -1.94101759       -2.82901750
 C            0.39502474       -0.69705788       -3.33705942
 C           -2.29968035       -1.53065139       -3.69321307
 C           -0.43245702        1.50173471       -4.05889747
 C           -1.80227248        1.93521506       -3.81128606
 C           -2.65171537        0.76098018       -3.91655139
 C           -0.44286469        0.05249129       -4.16644428
 C           -1.82198315       -0.34398352       -4.36032659
