   70
C70 / DATE: 7/ 1/2024 / Origin: Program Fullerene / C70 from database
 C            1.45392331        0.07557973        4.87588111
 C            0.68329503       -1.14936777        4.77775390
 C            1.27109757       -1.96742842        3.73230851
 C            2.59128322       -0.05923749        3.98919299
 C            2.57500630       -1.40106780        3.43363789
 C            2.56435650        1.05819632        3.06447430
 C            0.62237922        1.15207490        4.36270801
 C            1.26116761        1.68967268        3.18308269
 C           -0.70140463       -0.76902732        4.62914365
 C           -0.71758327        0.63693088        4.23060383
 C           -1.52743876       -1.63896916        3.93710602
 C            0.44915492       -2.41479554        2.69236037
 C           -0.92156277       -2.49482356        2.91713011
 C            0.93217731       -2.41745378        1.37925643
 C            3.09151407       -1.56798259        2.16147201
 C            2.30043085       -2.28363651        1.17615027
 C            3.06706673        0.85602396        1.78919193
 C            3.60080964       -0.39540205        1.47615794
 C            2.54025039        1.61818464        0.75245622
 C            0.51038641        1.88524418        2.02373780
 C            1.19459067        2.00190496        0.81518488
 C           -1.48243284        1.00592640        3.12589074
 C           -0.86693485        1.61250226        2.01197570
 C           -2.72129057       -1.07605392        3.35221876
 C           -2.67217690        0.31615410        2.94541992
 C           -1.82367930       -2.54544599        1.78019001
 C           -3.02914902       -1.85703601        2.17313550
 C            0.05212890       -2.25547434        0.29631070
 C           -1.32945241       -2.31880312        0.49727247
 C            0.54745685       -2.02109156       -0.99367742
 C            2.79249127       -1.87697364       -0.12591916
 C            3.71710194       -0.77187960        0.08085400
 C            1.91678596       -1.81135873       -1.20213877
 C            3.16171863        1.52291352       -0.48315595
 C            3.73193987        0.23970371       -0.86337078
 C            2.50449356        2.07054418       -1.65025092
 C            0.48582082        2.26889850       -0.35694662
 C            1.18781294        2.50358169       -1.54508423
 C           -1.58994329        1.78291677        0.81531021
 C           -0.91312599        2.16800559       -0.35923575
 C           -3.35261432        0.40711322        1.68134039
 C           -3.60570534       -0.94914396        1.21843931
 C           -2.91598979        1.32577183        0.73611985
 C           -2.19568446       -1.83794395       -0.49750378
 C           -3.38395976       -1.17794544       -0.12573257
 C           -0.34452843       -1.85191189       -2.05912579
 C           -1.71312263       -1.70207481       -1.80787550
 C            0.15920517       -1.58388732       -3.33513432
 C            2.33640578       -1.12270972       -2.33995235
 C            3.22103000       -0.05641560       -2.18619270
 C            2.88214136        1.22582669       -2.77139325
 C            1.54036007       -1.16148977       -3.47477105
 C            2.09083774        1.24124341       -3.90751531
 C            1.57307871       -0.02925239       -4.38921696
 C            0.49498943        2.75781975       -2.72017697
 C            1.00726977        2.20629923       -3.96688608
 C           -1.62721697        2.35585086       -1.55242787
 C           -0.94461678        2.62591523       -2.73743431
 C           -3.50336809        1.19361837       -0.51576143
 C           -3.83570103       -0.15692734       -0.94008979
 C           -2.92181168        1.86457292       -1.65094696
 C           -2.52932306       -1.11888014       -2.78208357
 C           -3.59999646       -0.25424919       -2.35354389
 C           -3.28447942        1.08177097       -2.81992516
 C           -0.63516012       -0.81738821       -4.28316362
 C            0.22600495        0.19020556       -4.87983991
 C           -0.09876622        1.58907629       -4.67449423
 C           -1.31404792        1.90900537       -3.95509178
 C           -1.92934412       -0.46920296       -3.93130857
 C           -2.30635228        0.94368292       -3.87610111
