   70
C70 / DATE: 7/ 1/2024 / Origin: Program Fullerene / C70 from database
 C            1.57930427       -0.02915773        4.46815965
 C            0.75904153       -1.21924594        4.37247608
 C            1.29475344       -2.05468777        3.31093983
 C            2.57730431       -0.10078386        3.41724851
 C            2.36473564       -1.31794588        2.66267338
 C            2.53487072        1.14858793        2.69760262
 C            0.72704186        1.11368209        4.18418401
 C            1.36237667        1.88464794        3.13409862
 C           -0.62451954       -0.79593471        4.27493651
 C           -0.61554795        0.62226712        3.95079761
 C           -1.49872616       -1.62274648        3.59073263
 C            0.40086250       -2.75514823        2.51348039
 C           -0.95109574       -2.75765101        2.86528482
 C            0.75215911       -3.03169393        1.19407672
 C            2.38685621       -1.25174281        1.27079170
 C            1.67379026       -2.19959741        0.53685153
 C            2.78840739        1.13916950        1.33851322
 C            2.81258250       -0.07645150        0.64059357
 C            2.42189603        2.27330353        0.63792011
 C            0.56820697        2.46758278        2.14735746
 C            1.19601305        2.86793705        0.96209140
 C           -1.29463513        1.07159737        2.82047602
 C           -0.80011158        2.17658127        2.12121956
 C           -2.48898780       -1.02343577        2.71673489
 C           -2.29555095        0.27577701        2.24977720
 C           -1.94675599       -3.14811013        1.87899192
 C           -2.91171523       -2.05933726        1.78954212
 C           -0.09533319       -3.85354678        0.46098414
 C           -1.52128279       -3.78921412        0.72334345
 C            0.08318698       -3.97327501       -0.96632274
 C            1.75588839       -2.17989833       -0.86036501
 C            1.03995590       -3.10647520       -1.61812263
 C            2.88652326       -0.03734540       -0.75797058
 C            2.32067267       -1.07595805       -1.50767674
 C            2.94262507        2.40612439       -0.63370938
 C            3.18649910        1.18434914       -1.37535520
 C            2.36847290        3.38318218       -1.52861205
 C            0.44414648        3.51705430       -0.02462183
 C            1.04534523        3.88514094       -1.22730882
 C           -1.58438061        2.73553335        1.12378512
 C           -0.94618162        3.46386613        0.03991280
 C           -2.92513317        0.68170236        1.06885272
 C           -2.66241018        1.94682343        0.55524965
 C           -3.41798065       -1.68366118        0.55372393
 C           -3.47384318       -0.27293963        0.21173686
 C           -2.18025525       -3.50708769       -0.54142732
 C           -1.21136835       -3.74325289       -1.59462065
 C           -3.03363741       -2.41592678       -0.64351356
 C            0.41518592       -2.66816781       -2.85090535
 C           -1.01521931       -2.73106383       -2.61712512
 C            2.07360807       -0.89667417       -2.87124200
 C            0.92456620       -1.54592284       -3.47096741
 C            2.79856260        1.42759361       -2.75503548
 C            2.34270904        2.80373253       -2.86035745
 C            2.12687309        0.43330209       -3.44575359
 C            0.26678296        3.81600881       -2.45273775
 C            1.03676305        3.06898035       -3.43255255
 C           -1.71295182        3.21360158       -1.17286763
 C           -2.61914235        2.11915076       -0.88784432
 C           -1.06414404        3.24197207       -2.39648685
 C           -3.24948227       -0.15075408       -1.22093972
 C           -2.84843893       -1.45048445       -1.72032786
 C           -1.74647236       -1.54303580       -2.56486516
 C           -2.62085115        0.98945979       -1.70155303
 C            0.00436880       -0.47998080       -3.81476462
 C            0.81413943        0.70328392       -4.02915353
 C            0.22613558        1.94940244       -3.87561708
 C           -1.06556853        2.03803106       -3.21451663
 C           -1.20071545       -0.38096037       -3.11862960
 C           -1.68077451        0.87986683       -2.73127153
