   70
C70 / DATE: 7/ 1/2024 / Origin: Program Fullerene / C70 from database
 C            1.54178385        0.04545044        4.85575594
 C            0.75219880       -1.15427257        4.64483325
 C            1.45607007       -1.99911739        3.69738093
 C            2.69295985       -0.01900263        3.97421337
 C            2.65331828       -1.28765446        3.26963180
 C            2.72676359        1.20141316        3.19412100
 C            0.73611008        1.17842455        4.43954082
 C            1.47382329        1.90551045        3.41901460
 C           -0.60266650       -0.74880227        4.32965139
 C           -0.59069953        0.68833950        4.10574636
 C           -1.33789119       -1.54822064        3.47036906
 C            0.72299999       -2.71061901        2.75022888
 C           -0.67116497       -2.63585268        2.76539181
 C            1.37132723       -3.11580578        1.58865682
 C            3.01780656       -1.33043586        1.92521321
 C            2.55268602       -2.38814713        1.15055353
 C            3.22686131        1.13681924        1.90491717
 C            3.46632501       -0.16710004        1.29585580
 C            2.64669585        1.98998095        0.88395917
 C            0.76354338        2.40370795        2.32831159
 C            1.40725478        2.57912803        1.09711811
 C           -1.21242413        1.21193074        2.97523800
 C           -0.62728724        2.31419299        2.35527526
 C           -2.24619110       -0.91878688        2.52820772
 C           -2.12072111        0.43282421        2.24963741
 C           -1.42791050       -2.88265919        1.54728276
 C           -2.43538060       -1.83678731        1.42698104
 C            0.60395160       -3.47562086        0.40669540
 C           -0.78200902       -3.32862465        0.39843385
 C            2.48749124       -2.26033885       -0.29733030
 C            1.37759823       -3.07198775       -0.76001316
 C            3.30459137       -0.00918901       -0.14291031
 C            2.90357971        1.36533263       -0.39307277
 C            2.72486540       -1.02850936       -0.89677322
 C            2.03684936        1.60796677       -1.44334506
 C            0.65671179        2.99317588       -0.00757685
 C            0.98577147        2.51789527       -1.29061683
 C           -1.34721462        2.96772111        1.37059640
 C           -0.61572361        3.49595313        0.23939900
 C           -2.61474953        0.92152418        1.04043171
 C           -2.50466244        2.28914353        0.82567761
 C           -2.73398029       -1.34037782        0.16208320
 C           -2.77861930        0.04554915       -0.04984861
 C           -1.42925776       -3.16052984       -0.82192153
 C           -2.50673839       -2.18655535       -0.91415190
 C            0.70968409       -2.70095312       -1.91724150
 C           -0.63610192       -3.02981046       -2.03015809
 C            2.05210915       -0.70107444       -2.07890428
 C            1.94847946        0.64763577       -2.43617076
 C            1.21547244       -1.65062985       -2.68291456
 C            1.34182786        1.00703742       -3.62546257
 C            0.13539395        2.75406803       -2.38587401
 C            0.39417736        2.10875169       -3.59877551
 C           -1.56315187        3.62438293       -0.84373125
 C           -2.73537539        2.83217639       -0.49087283
 C           -1.16083246        3.22141051       -2.17052698
 C           -2.91131102        0.54633102       -1.36020916
 C           -2.97977836        1.91965421       -1.58337671
 C           -2.28040754        2.47621223       -2.72349028
 C           -2.50954819       -1.65588856       -2.26133580
 C           -1.45709927       -2.33716953       -3.00479149
 C           -2.71837527       -0.29591616       -2.46186132
 C            0.58470036       -1.34205446       -3.88697252
 C            0.80696927       -0.03600991       -4.47369639
 C           -0.82838531       -1.66037909       -4.03756765
 C           -0.73557481        1.72856448       -4.43149148
 C           -2.04583617        1.65895733       -3.81322888
 C           -2.39246288        0.25022135       -3.70681734
 C           -0.45321831        0.43198658       -5.01986633
 C           -1.48600148       -0.48449084       -4.57350575
