   70
C70 / DATE: 7/ 1/2024 / Origin: Program Fullerene / C70 from database
 C            1.06779459        0.00751394        5.81532048
 C            0.17399358       -1.13523169        5.81786313
 C            0.89725464       -2.26090096        5.25202037
 C            2.28969050       -0.38310701        5.12955676
 C            2.17211534       -1.77123741        4.75254488
 C            2.52182711        0.58164641        4.07749266
 C            0.44367311        1.05723005        5.02596727
 C            1.43673766        1.55215017        4.10160928
 C           -0.93338241       -0.82910229        4.92746075
 C           -0.78251550        0.54025892        4.46275191
 C            0.14209195       -2.73831357        4.10840290
 C           -1.01216465       -1.88113012        3.92876715
 C            2.25483615       -2.10697673        3.34052476
 C            1.05865238       -2.85442189        2.99203269
 C            2.97359283        0.15657471        2.82893927
 C            2.72769680       -1.16735194        2.41904091
 C            3.02318792        1.14729486        1.85507813
 C            1.01555990        2.05385233        2.87392073
 C            2.00644029        2.18428336        1.91295811
 C           -1.04284410        0.80215557        3.12132728
 C           -0.28871079        1.76748914        2.44009923
 C           -1.33336941       -1.51868974        2.62630711
 C           -1.66552946       -0.19111964        2.37091790
 C            0.54891023       -2.67081279        1.71359108
 C           -0.77119670       -2.24646139        1.57795240
 C            2.48540033       -1.42357174        1.06281139
 C            1.43523919       -2.28807648        0.71999299
 C            3.18161241        0.77894410        0.46453253
 C            2.99211667       -0.54519784        0.10224012
 C            1.63471354        2.51474911        0.55719333
 C            2.54470185        1.82017305       -0.32840707
 C           -0.65345126        2.04971816        1.11534451
 C            0.29568322        2.54787534        0.21594926
 C           -2.06258984        0.12411456        1.08060828
 C           -1.77198726        1.39411006        0.59408969
 C           -1.23029822       -1.95884179        0.29273296
 C           -2.13901416       -0.91443933        0.16047929
 C            0.97126997       -2.30961869       -0.59019280
 C           -0.41073920       -2.24989834       -0.80099778
 C            2.77147652       -0.82012756       -1.24187951
 C            1.82707215       -1.86356321       -1.57972778
 C            2.10198170        1.50348595       -1.60695271
 C            2.50312797        0.29041929       -2.14368914
 C           -0.02395849        2.55347318       -1.13686531
 C            0.90610543        2.06157460       -2.06462563
 C           -2.18589751        1.69022014       -0.70448929
 C           -1.36776380        2.51673226       -1.47173597
 C           -2.61332487       -0.61374256       -1.10701078
 C           -2.93304139        0.71616495       -1.36607947
 C           -0.91741186       -1.99440300       -2.08383708
 C           -2.18874009       -1.41003365       -2.16676394
 C            1.29337752       -1.56351107       -2.88762619
 C            1.77095511       -0.24546001       -3.27115648
 C           -0.03040510       -1.86849412       -3.16488654
 C            0.46761007        1.76841579       -3.36289640
 C            0.88773288        0.56976860       -3.96951275
 C           -1.70367767        2.73306258       -2.80151921
 C           -0.70175690        2.39911198       -3.79930555
 C           -3.48885290        1.03445579       -2.59924843
 C           -2.96856404        2.20663308       -3.27352775
 C           -2.77896422       -1.21019850       -3.41074864
 C           -3.60029343       -0.02370902       -3.58829267
 C           -0.51541911       -1.37882993       -4.37372224
 C            0.02008296       -0.10350795       -4.82832860
 C           -1.94380374       -1.33942714       -4.58283909
 C           -1.39695390        1.91702851       -4.98154082
 C           -2.82022155        1.89916609       -4.68403100
 C           -3.30600196        0.54606559       -4.89272769
 C           -1.03827667        0.61847729       -5.49922291
 C           -2.22319227       -0.22488038       -5.47403424
