   70
C70 / DATE: 7/ 1/2024 / Origin: Program Fullerene / C70 from database
 C            1.20396715        0.06491695        4.49158461
 C            2.46771859       -0.15820368        3.82762470
 C            2.48349309       -1.54596373        3.41174009
 C            0.36306533       -1.10518188        4.25682471
 C            1.10673502       -2.00829952        3.41726569
 C           -0.91855781       -0.62506693        3.79069731
 C            0.41858327        1.21711008        4.10761107
 C           -0.96231646        0.77723827        4.15268775
 C            0.82794342        2.01647371        3.03767556
 C            2.78367229        0.63774482        2.65796136
 C            1.86246781        1.57855649        2.19733147
 C            3.21521706       -1.61734519        2.16244983
 C            3.42484985       -0.25084011        1.70156408
 C            2.79985095       -2.55825554        1.23587248
 C            0.55744009       -2.44771603        2.21707064
 C            1.43186099       -3.05192383        1.32437728
 C           -1.38576456       -1.00469121        2.53172136
 C           -0.63470122       -1.87821046        1.73009767
 C           -2.40118139       -0.24191448        1.95477196
 C           -1.91269743        1.57493181        3.54709589
 C           -2.77993871        0.96582830        2.55570000
 C           -0.08382230        2.95326736        2.56030295
 C           -1.46924402        2.83871705        2.98487536
 C           -0.08614991        3.29222053        1.14903312
 C            1.83587923        1.88145491        0.83178791
 C            0.82308379        2.68454609        0.30508769
 C            3.30552383        0.02819478        0.34263178
 C            2.71603379        1.23600800       -0.04140442
 C            3.06710423       -2.30932966       -0.16544550
 C            3.39421930       -1.02472742       -0.57741873
 C            0.98564640       -3.34989546       -0.01334698
 C            2.08067133       -3.05380811       -0.92421265
 C           -1.04642353       -2.13453986        0.40923428
 C           -0.30213278       -3.01116972       -0.39416894
 C           -2.85765055       -0.53666390        0.67000648
 C           -2.14974447       -1.44771393       -0.12905469
 C           -3.77532850        0.33880634        0.08744143
 C           -3.27780225        2.04956326        1.72782387
 C           -2.31809208        3.13177943        1.84489217
 C           -1.46412577        3.41825099        0.70417066
 C           -3.73452187        1.73552557        0.46407784
 C           -1.83272798        2.90619951       -0.54159628
 C           -3.13033489        2.41442789       -0.66939502
 C            0.50846319        2.58841861       -1.04389747
 C           -0.83167205        2.47278295       -1.42758925
 C            2.70163805        1.58866650       -1.38785191
 C            1.51654415        2.23474276       -1.92590093
 C            3.32914643       -0.75083430       -1.93777064
 C            3.15980100        0.62249386       -2.36398850
 C            1.77174155       -2.64938466       -2.21935677
 C            2.49324264       -1.59145804       -2.78767359
 C           -0.58809993       -3.11717178       -1.74591562
 C            0.50146203       -2.95807932       -2.70111348
 C           -2.51667347       -1.63485799       -1.47444785
 C           -1.75887599       -2.46875977       -2.28494003
 C           -3.95334811        0.34028426       -1.34497320
 C           -3.48611057        1.63462778       -1.83103082
 C           -3.28040998       -0.66846772       -2.12160133
 C           -1.16308928        1.77781414       -2.60493551
 C           -2.47513255        1.37084930       -2.82942113
 C           -2.71025700        0.01280550       -3.27085327
 C            1.16767451        1.57450037       -3.16675574
 C            2.23264499        0.63878031       -3.48198904
 C            1.88367575       -0.73248964       -3.79903634
 C           -0.15259168        1.19564905       -3.37628132
 C           -0.01712840       -2.25479670       -3.85599332
 C           -1.43043182       -2.01382514       -3.62817430
 C           -1.70706491       -0.63111323       -3.97236452
 C            0.59527021       -0.99904656       -4.23612478
 C           -0.42218709        0.03756796       -4.11506716
