   70
C70 / DATE: 7/ 1/2024 / Origin: Program Fullerene / C70 from database
 C            1.62160406       -0.02585289        4.54085379
 C            0.81458078       -1.22608989        4.44234346
 C            1.33501644       -2.03952455        3.35494272
 C            2.64628938       -0.10070106        3.51739481
 C            2.49272764       -1.35192718        2.80574084
 C            2.58755725        1.11969781        2.74569459
 C            0.76449316        1.10304510        4.22059245
 C            1.38117217        1.83231763        3.12838484
 C           -0.57396655       -0.81424817        4.37922042
 C           -0.58229176        0.59970050        4.03362639
 C           -1.45606370       -1.65128754        3.71977174
 C            0.42223126       -2.64385263        2.48900789
 C           -0.90564176       -2.72589267        2.90691267
 C            0.73413249       -2.73636749        1.12315621
 C            2.66782715       -1.35019470        1.42997450
 C            1.99099618       -2.30607266        0.68518111
 C            2.88240676        1.05761832        1.39366543
 C            3.11088315       -0.18534185        0.79146720
 C            2.42349884        2.09275022        0.59701321
 C            0.57143963        2.33469678        2.11156876
 C            1.16698156        2.64387758        0.88375470
 C           -1.29796326        1.02593627        2.91607571
 C           -0.80394850        2.09016481        2.15725747
 C           -2.51042579       -1.05428924        2.92539104
 C           -2.32047103        0.22082370        2.39939043
 C           -1.93188486       -3.09778772        1.95835725
 C           -2.98817484       -2.10033631        2.05196070
 C           -0.26325138       -3.01289150        0.17398906
 C           -1.57353439       -3.22104409        0.56350654
 C           -0.01586536       -2.76391003       -1.17039512
 C            2.33751604       -2.45633454       -0.65038397
 C            1.30100623       -2.81097438       -1.59895798
 C            3.36154497       -0.22833963       -0.58655074
 C            3.15754554       -1.42853816       -1.26804969
 C            2.96106514        2.19140081       -0.67370037
 C            3.43235613        0.97164123       -1.30442352
 C            2.28114797        2.98659845       -1.66827214
 C            0.38825154        3.21500502       -0.13151515
 C            0.91746531        3.38955478       -1.40574979
 C           -1.61229812        2.63397571        1.17144582
 C           -0.99419250        3.24555342        0.00806435
 C           -2.95137242        0.58241504        1.20083639
 C           -2.76603455        1.87764855        0.72044525
 C           -3.36673531       -1.74122540        0.70557832
 C           -2.62172172       -2.59157737       -0.21039552
 C           -3.52026476       -0.40028318        0.37185134
 C           -1.00867386       -2.15420340       -1.95961603
 C           -2.32833322       -2.08142386       -1.47388668
 C           -0.66390117       -1.50286456       -3.16115175
 C            1.65455525       -2.24170114       -2.87691672
 C            2.83001885       -1.40831944       -2.68289768
 C            0.66161151       -1.46115189       -3.57548942
 C            3.03585431        1.01991123       -2.70717277
 C            2.30325584        2.25154431       -2.92163517
 C            2.58935180       -0.13404777       -3.32925500
 C            1.24874660       -0.16934852       -3.90223345
 C            0.11495888        3.01522592       -2.55978526
 C            0.94214239        2.18133279       -3.42070207
 C            0.43575082        0.96919909       -3.88795441
 C           -1.82841601        2.95796830       -1.14880523
 C           -2.96662756        2.17320134       -0.68710110
 C           -1.22484660        2.68481665       -2.37920210
 C           -3.71708806       -0.13345507       -0.97998137
 C           -3.17400669       -1.07926905       -1.94115172
 C           -3.51135618        1.20244576       -1.50757601
 C           -1.49910692       -0.52052017       -3.67814852
 C           -0.94621073        0.80004635       -3.92901568
 C           -1.80050318        1.76091806       -3.24724306
 C           -2.82485414       -0.34828210       -3.13433487
 C           -3.01795615        1.06844027       -2.86476733
