   70
C70 / DATE: 7/ 1/2024 / Origin: Program Fullerene / C70 from database
 C            1.16443551       -0.02694024        4.37194637
 C            2.46686956       -0.28767815        3.80735351
 C            2.45016004       -1.63833763        3.26917239
 C            0.33796784       -1.20230548        4.13997489
 C            1.07671818       -2.09396662        3.27640962
 C           -0.96126260       -0.74498218        3.70107321
 C            0.42103165        1.12303737        3.89980055
 C           -0.96370982        0.70789742        3.75624504
 C            0.96708980        1.97659351        2.94370489
 C            2.95879869        0.58908023        2.76464436
 C            2.21774828        1.69924918        2.36434596
 C            3.15167337       -1.61711572        1.99988154
 C            3.57578614       -0.24715040        1.74740957
 C            2.64595740       -2.35588995        0.93693712
 C            0.51496354       -2.48809536        2.06827319
 C            1.36407996       -2.90994602        1.04461926
 C           -1.57628944       -1.36235375        2.61982139
 C           -0.82522287       -2.19231808        1.77504791
 C           -2.71056577       -0.74015738        2.11870864
 C           -1.79500704        1.40562022        2.88161155
 C           -2.82355991        0.70571937        2.25352140
 C            0.10099620        2.88051488        2.33412983
 C           -1.32642190        2.58826537        2.31141010
 C            0.45322120        3.50134750        1.06990200
 C            2.58670132        2.31380362        1.17075387
 C            1.67037139        3.20822729        0.48807455
 C            3.63270548        0.21148377        0.43036341
 C            3.29360356        1.53662667        0.16249890
 C            3.15978700       -2.07536504       -0.32299412
 C            3.60876528       -0.72176673       -0.60522416
 C            2.49726339       -2.59064738       -1.50589892
 C            0.80802727       -3.57705291       -0.03993292
 C            1.42988650       -3.45922547       -1.34918763
 C           -1.36141670       -2.61362626        0.55233541
 C           -0.63005800       -3.50765092       -0.22406910
 C           -3.21816775       -1.10961773        0.81289180
 C           -2.45912235       -1.94111938       -0.00173151
 C           -3.41869052        1.21841031        1.02942691
 C           -3.85214343        0.06728434        0.24718811
 C           -1.85249133        3.04330288        1.03300879
 C           -0.73841945        3.54221599        0.24222563
 C           -2.86190827        2.32973982        0.39603199
 C           -0.67063124        3.21582339       -1.11089414
 C            1.72571559        2.91059274       -0.93181117
 C            2.75427446        1.90169403       -1.13943636
 C            0.55528380        2.85330093       -1.68453065
 C            3.09063918       -0.34775840       -1.91317266
 C            2.40547930       -1.50464177       -2.47315753
 C            2.56806392        0.92528250       -2.11379134
 C            1.24100734       -1.32217315       -3.21890208
 C            0.37480087       -3.45080648       -2.34163088
 C           -0.89298568       -3.58682002       -1.64358617
 C            0.26697151       -2.31650441       -3.24249336
 C           -2.65834687       -1.91055148       -1.39011781
 C           -1.81963255       -2.64060179       -2.22239816
 C           -1.13646611       -1.94125855       -3.30006324
 C           -3.95321456        0.17720457       -1.12889554
 C           -3.33363108       -0.83675371       -1.96537731
 C           -3.00914023        2.48362942       -0.98063893
 C           -1.86479596        2.92110375       -1.76707474
 C           -3.71045042        1.46765173       -1.74319417
 C           -1.49054767       -0.62035970       -3.56557482
 C           -2.73020596       -0.17312754       -3.11063082
 C           -1.85426091        2.16163514       -3.00620974
 C           -2.97984508        1.25017605       -2.98079013
 C            0.58652341        2.15476094       -2.88860714
 C            1.58086930        1.11062475       -3.07762805
 C            0.90953516       -0.04478070       -3.65528128
 C           -0.64691199        1.71168155       -3.51030115
 C           -0.48824895        0.30586527       -3.86551592
