   70
C70 / DATE: 7/ 1/2024 / Origin: Program Fullerene / C70 from database
 C            1.55581019        0.05178216        4.80462669
 C            0.73904519       -1.13498741        4.95793207
 C            1.39308676       -2.21349570        4.23874781
 C            2.56615191       -0.23871524        3.80024643
 C            2.38250083       -1.60199083        3.35802821
 C            2.50267123        0.80588428        2.80934205
 C            0.70698327        1.10450171        4.27523534
 C            1.39599126        1.68257800        3.14505543
 C           -0.62660832       -0.79035445        4.59961977
 C           -0.61112291        0.55473415        4.04327827
 C           -1.41040980       -1.76081213        3.99450526
 C            0.60485295       -3.24443210        3.74763121
 C           -0.84320726       -3.08425293        3.76991683
 C            0.96029665       -3.83819759        2.47245541
 C            2.35335029       -1.87805562        1.98871030
 C            1.83463557       -3.09927255        1.57484646
 C            2.66156965        0.48228458        1.46863694
 C            2.51955328       -0.84650571        1.04665291
 C            2.34533066        1.47760372        0.55999498
 C            0.64546279        2.16337977        2.08149851
 C            1.32653643        2.37322882        0.89339783
 C           -1.21850404        0.80582776        2.81308245
 C           -0.70660134        1.82177534        1.98871966
 C           -2.18882899       -1.40980761        2.81916807
 C           -2.09780866       -0.13340922        2.26909429
 C           -1.37217561       -3.59021123        2.51487369
 C           -0.27036700       -4.12734856        1.75288574
 C           -2.17469395       -2.54253560        1.91352114
 C            1.27421884       -3.21373684        0.24632199
 C           -0.09536722       -3.66414248        0.39319448
 C            2.26984444       -1.09952363       -0.31672100
 C            1.51310817       -2.21244173       -0.68056550
 C            2.59820731        1.24125413       -0.77798812
 C            2.39074549       -0.05738536       -1.25134624
 C            2.42649945        2.31795229       -1.63592850
 C            0.65868121        3.02873412       -0.13113155
 C            1.36542731        3.25121444       -1.31065317
 C           -1.38060771        2.13531385        0.80109623
 C           -0.73432953        2.93323701       -0.15754158
 C           -2.52346831        0.04494255        0.95767271
 C           -2.44337246        1.31694122        0.40930103
 C           -2.07162658       -2.27789123        0.55020969
 C           -1.08934658       -2.90828652       -0.22285398
 C           -2.56808210       -1.05773080        0.09669187
 C            0.59070816       -2.06398073       -1.70693966
 C           -0.75897716       -2.31617603       -1.43757915
 C            1.88347473       -0.24221787       -2.54962984
 C            0.91701335       -1.23172969       -2.76782021
 C            2.39929937        2.08440480       -3.06115283
 C            2.11120437        0.74301222       -3.51373120
 C            0.66137961        3.57319596       -2.53763844
 C            1.40050527        2.97244507       -3.63550110
 C           -1.43513495        3.34276327       -1.29050364
 C           -0.72665479        3.55670223       -2.54285976
 C           -3.05062357        1.52034583       -0.82205672
 C           -2.68366364        2.68201971       -1.60322285
 C           -2.61950240       -0.83340607       -1.27896462
 C           -1.72170573       -1.54198929       -2.07911020
 C           -3.13713848        0.38344913       -1.71895652
 C           -0.04299886       -1.07180896       -3.76366085
 C           -1.43650608       -1.10989948       -3.36999251
 C            1.22058254        0.87030081       -4.65436807
 C            0.68269062        2.22323923       -4.64731128
 C            0.10939048       -0.04514368       -4.77082338
 C           -1.45277087        2.85621339       -3.59741884
 C           -2.65052157        2.28846932       -3.00199302
 C           -2.86721937        0.85184520       -3.06695809
 C           -2.07375345        0.08134038       -3.90269721
 C           -0.76376741        2.12510689       -4.56152569
 C           -1.11934290        0.73385150       -4.78904642
