   70
C70 / DATE: 7/ 1/2024 / Origin: Program Fullerene / C70 from database
 C            1.56712150       -0.09341126        4.97883849
 C            0.76048910       -1.29296110        4.86350228
 C            1.42528018       -2.19696705        3.93689778
 C            2.66645150       -0.21423286        4.04053949
 C            2.49562066       -1.45255396        3.29749005
 C            2.73684661        1.02408935        3.29204071
 C            0.75190508        1.02820425        4.54616708
 C            1.48859406        1.74042674        3.51561905
 C           -0.60537972       -0.88528700        4.57843529
 C           -0.56916031        0.52256206        4.21855562
 C           -1.40011405       -1.74446636        3.83583453
 C            0.63919544       -3.03429675        3.16397355
 C           -0.80339475       -2.97259927        3.33588103
 C            0.90229868       -3.12928970        1.73615867
 C            2.58943519       -1.41221157        1.90396869
 C            1.73743857       -2.19925293        1.11844380
 C            3.22286562        0.96064424        1.99853263
 C            3.24997341       -0.33398163        1.32736967
 C            2.72419093        1.91320944        1.02912718
 C            0.78678454        2.22912074        2.41338042
 C            1.48498333        2.50995858        1.23349303
 C           -1.15576827        0.94482943        3.02922956
 C           -0.59470850        2.02906153        2.35624209
 C           -2.23088711       -1.20077631        2.77154616
 C           -2.05786813        0.11412270        2.35531868
 C           -1.41095852       -3.26944950        2.05605178
 C           -0.34549849       -3.48865665        1.09207849
 C           -2.38300982       -2.22889640        1.76214529
 C           -0.57150173       -3.05263555       -0.20236090
 C            1.55298821       -1.91578778       -0.24699329
 C            0.48480639       -2.50795073       -0.93468774
 C            3.11270593       -0.08660032       -0.09299721
 C            3.00870048        1.35029203       -0.26978277
 C            2.29715213       -0.90690923       -0.86671347
 C            2.28414659        1.80446561       -1.35258835
 C            0.78819917        2.98730028        0.12046877
 C            1.33229427        2.80691176       -1.15698434
 C           -1.30837806        2.59474953        1.31267321
 C           -0.57479135        3.24297546        0.24650896
 C           -2.51129794        0.48394094        1.08593317
 C           -2.36076013        1.80762598        0.69471607
 C           -2.51211243       -1.84528723        0.43403917
 C           -1.85722983       -2.62686437       -0.50825816
 C           -2.74705589       -0.50199576        0.11866083
 C           -2.14920266       -2.40600253       -1.83559333
 C            0.23267612       -2.16829365       -2.26963688
 C           -1.04361859       -2.45287862       -2.76384934
 C            1.89800638       -0.42931731       -2.11721820
 C            2.10713508        0.92429449       -2.40915291
 C            1.00804276       -1.17936333       -2.88695244
 C            1.68496606        1.45505137       -3.61756157
 C            0.61269969        3.25236695       -2.26613892
 C            0.93363538        2.69469933       -3.57402414
 C           -1.42453571        3.20724891       -0.92928193
 C           -2.40079248        2.15144094       -0.71439483
 C           -0.83719140        3.32357724       -2.17543447
 C           -2.85784858       -0.15608066       -1.23774840
 C           -2.87888699       -1.19914280       -2.16233857
 C           -2.53602910        1.14205273       -1.66229271
 C           -1.52514690       -1.81211689       -3.96827521
 C           -2.61831681       -0.93431026       -3.56250736
 C            0.71285827       -0.76351539       -4.18901202
 C            1.05545217        0.58775606       -4.58944463
 C           -0.59837388       -1.02794993       -4.74640383
 C           -0.31922868        2.46116648       -4.26821631
 C           -1.36845740        2.52953645       -3.26648182
 C           -2.12429045        1.38984297       -2.98194544
 C           -2.25897486        0.40574961       -3.96012853
 C           -0.16717010        1.24302468       -5.03874344
 C           -1.22799989        0.25999375       -4.97571785
