   70
C70 / DATE: 7/ 1/2024 / Origin: Program Fullerene / C70 from database
 C            1.22091263        0.09729399        4.38056761
 C            2.52117779       -0.19444481        3.81798020
 C            2.54765130       -1.61450695        3.52430636
 C            0.39160105       -1.08935563        4.22366912
 C            1.17285099       -2.07974652        3.51626963
 C           -0.87085961       -0.66746531        3.65640604
 C            0.47516216        1.21036999        3.83497558
 C           -0.90284558        0.77933307        3.67495407
 C            1.03443662        1.98679035        2.82467715
 C            2.92524606        0.50357577        2.61025765
 C            2.06835116        1.44788628        2.04632458
 C            3.33096934       -1.79634754        2.32112611
 C            3.57014351       -0.47250346        1.75106518
 C            2.96328746       -2.82351331        1.46616734
 C            0.66919996       -2.64822134        2.34698177
 C            1.57043382       -3.25823373        1.47003213
 C           -1.36252861       -1.30636472        2.53512625
 C           -0.60464523       -2.28868636        1.87976840
 C           -2.39842970       -0.68821994        1.84976319
 C           -1.68138178        1.45508933        2.73535833
 C           -2.46389581        0.71640423        1.82691268
 C            0.19950851        2.93838586        2.25941211
 C           -1.23415046        2.72159184        2.37067980
 C            0.44936598        3.38019152        0.90445880
 C            2.05509127        1.61376279        0.65420114
 C            1.23053866        2.58577219        0.07774109
 C            3.50841698       -0.30565308        0.37007865
 C            2.88801446        0.83129042       -0.15612231
 C            3.38788774       -2.73404327        0.08571654
 C            3.69601809       -1.42171393       -0.44664964
 C            1.17543463       -3.49900154        0.09180127
 C            2.33860205       -3.30023633       -0.74375927
 C           -1.01503359       -2.72627545        0.61611002
 C           -0.05228741       -3.02158714       -0.34094902
 C           -3.06556975       -1.44189197        0.89877686
 C           -2.30976694       -2.45760189        0.19280586
 C           -3.93172376       -0.78463976       -0.04904916
 C           -3.15283895        1.38041883        0.79191290
 C           -3.85086829        0.65225179       -0.16527319
 C           -1.86288142        3.41013003        1.26999248
 C           -0.80441700        3.89482113        0.39700845
 C           -2.80810557        2.68353420        0.45448708
 C           -1.17804849        3.57414287       -0.96294233
 C           -2.51031287        2.99004348       -0.93405162
 C            0.99378944        2.57903291       -1.30096837
 C           -0.23335446        3.02149197       -1.81730263
 C            2.85019158        0.99602288       -1.53947646
 C            1.88381488        1.90844381       -2.12962025
 C            3.20163703       -1.40234260       -1.80984272
 C            2.20678578       -2.45777447       -1.91398086
 C            2.91991487       -0.17941111       -2.39331656
 C           -0.19410246       -2.51622574       -1.64022556
 C            0.93624318       -2.12722647       -2.37383600
 C           -2.55437482       -2.27658652       -1.22671872
 C           -3.67336787       -1.36005799       -1.35802636
 C           -1.46864286       -2.15866167       -2.09327657
 C           -3.66415687        0.97967557       -1.57324942
 C           -2.86024309        2.07111162       -1.92272104
 C           -3.57545935       -0.27564132       -2.31350013
 C           -0.70416554        2.50003997       -3.01858613
 C           -2.07587509        2.01480544       -3.07604554
 C            1.39940032        1.29755371       -3.35594028
 C            1.80341394       -0.09622121       -3.31692587
 C            0.82665434       -1.09265292       -3.29923913
 C            0.12723803        1.60791879       -3.80792603
 C           -1.59899917       -1.38750142       -3.24987298
 C           -2.66161297       -0.39213761       -3.34826181
 C           -2.08616709        0.81753546       -3.89509953
 C           -0.41059459       -0.83122047       -3.87070710
 C           -0.71767856        0.52720342       -4.28440983
