   70
C70 / DATE: 7/ 1/2024 / Origin: Program Fullerene / C70 from database
 C            1.40696504       -0.33277587        5.13427236
 C            0.58907808       -1.52185511        4.98532057
 C            1.18106965       -2.35128816        3.94615062
 C            2.55528812       -0.48257170        4.26402078
 C            2.38580667       -1.70147897        3.48599122
 C            2.71473247        0.76557419        3.54051949
 C            0.64397879        0.80286188        4.64130564
 C            1.44717193        1.47591395        3.63655312
 C           -0.71190097       -1.09942941        4.50575177
 C           -0.67198021        0.32868282        4.25945401
 C            0.15157166       -2.64306247        2.97261556
 C           -1.05742841       -1.95518500        3.39117623
 C            0.46976479       -2.62561653        1.61426749
 C            2.64047825       -1.63802372        2.11903315
 C            1.75131735       -2.22737102        1.20277267
 C            3.32900293        0.70115681        2.30217815
 C            3.45885209       -0.60562308        1.68091284
 C            2.87547625        1.59474850        1.25312276
 C            0.82358039        1.90878865        2.46629360
 C            1.59144219        2.11409613        1.31644113
 C           -1.22532899        0.78783116        3.06883878
 C           -0.56471300        1.77950692        2.34382705
 C           -1.84809770       -1.42574908        2.38623119
 C           -2.09927660       -0.04985130        2.37999977
 C           -0.58898464       -2.54861324        0.70356485
 C           -1.82178028       -2.07484839        1.16315448
 C           -0.31265106       -2.56271247       -0.66513218
 C            2.01127504       -2.11709825       -0.17148776
 C            1.02278717       -2.51574468       -1.08151622
 C            3.60105583       -0.38435006        0.26482725
 C            3.32694705        1.01970923        0.00419659
 C            3.07161307       -1.30872404       -0.61532973
 C            2.66135800        1.33754039       -1.17607177
 C            0.94805095        2.46556943        0.13405824
 C            1.47642911        2.07946890       -1.10786447
 C           -1.18339057        2.26713790        1.19388909
 C           -0.38357418        2.85019571        0.21087459
 C           -2.79625024        0.48463315        1.29600171
 C           -2.43584247        1.75400018        0.84019835
 C           -2.80305294       -1.71963657        0.25721771
 C           -3.39410655       -0.40520347        0.40530591
 C           -1.35941180       -2.41642089       -1.58904080
 C           -2.59093931       -1.95442071       -1.15242413
 C           -1.08539003       -2.29234929       -2.94304845
 C            1.33296949       -2.56778617       -2.43854557
 C            0.26913053       -2.47404570       -3.41478528
 C            3.11059984       -0.93214675       -1.94921284
 C            2.84638543        0.46787087       -2.25003167
 C            2.41309271       -1.73836275       -2.91974758
 C            0.57829063       -1.36284486       -4.30461139
 C            1.93227903        0.50948465       -3.37657787
 C            1.86634067       -0.83704081       -3.91862087
 C            0.68992150        2.22767255       -2.25479760
 C            0.77153450        1.27266389       -3.27643522
 C           -0.97949622        3.40007543       -0.91455432
 C           -0.39612566        3.09562283       -2.20947256
 C           -3.10347657        2.29911070       -0.25471921
 C           -2.41951414        3.30722023       -1.04060688
 C           -3.79813229        0.05086566       -0.91228318
 C           -3.24833013       -0.88368428       -1.89021140
 C           -3.79005336        1.40967452       -1.18040063
 C           -1.66437145       -1.17388983       -3.67316726
 C           -0.55853689       -0.46738079       -4.28964279
 C           -0.38398573        0.87492562       -3.97106458
 C           -2.67595763       -0.41899673       -3.07873801
 C           -1.47922848        2.89360528       -3.14652482
 C           -2.73352782        3.08278425       -2.43926393
 C           -3.48305737        1.84248227       -2.52770293
 C           -1.54454043        1.62549759       -3.83797269
 C           -2.75320312        0.93920993       -3.39873215
