   70
C70 / DATE: 7/ 1/2024 / Origin: Program Fullerene / C70 from database
 C            1.24058171       -0.03750794        4.39318830
 C            2.47466845       -0.28711451        3.68716390
 C            2.46233279       -1.68084571        3.28722607
 C            0.40128613       -1.22295442        4.25621938
 C            1.08881154       -2.14128967        3.38202249
 C           -0.91911718       -0.76785175        3.88432652
 C            0.42865991        1.09217107        3.99279436
 C           -0.94199941        0.65686849        4.15052958
 C            0.76078119        1.83051511        2.85503242
 C            2.76353942        0.49245010        2.50154254
 C            1.86427956        1.45966482        2.06632379
 C            3.12097212       -1.77091462        1.99940285
 C            3.33454062       -0.41125389        1.51980233
 C            2.64254510       -2.70918060        1.09956045
 C            0.46283996       -2.59718068        2.22453609
 C            1.27280672       -3.18224311        1.25605780
 C           -1.50693369       -1.23124348        2.70928557
 C           -0.79591482       -2.09455850        1.85323324
 C           -2.62734028       -0.54438613        2.23291802
 C           -1.92938690        1.41037891        3.54738941
 C           -2.92129730        0.72165247        2.74216823
 C           -0.21664640        2.67676085        2.31850196
 C           -1.53056471        2.58046267        2.78430905
 C            0.04036045        3.35477541        1.12817624
 C            1.94122382        1.87910150        0.74091285
 C            1.20508296        2.98202762        0.34692166
 C            3.14968419       -0.14287331        0.16379557
 C            2.51182471        1.04367331       -0.22516391
 C            2.85175062       -2.47219052       -0.31406684
 C            3.22797471       -1.20368171       -0.74014254
 C            0.74166910       -3.44104170       -0.06575260
 C            1.79353925       -3.15907346       -1.03157030
 C           -1.34802188       -2.45426178        0.61325337
 C           -0.56054777       -3.07489652       -0.36304121
 C           -3.24144899       -0.95989660        1.05832721
 C           -2.62054385       -2.00602489        0.27089719
 C           -3.77708082        0.03157284        0.13117625
 C           -3.50683492        1.72019050        1.86528899
 C           -2.63264240        2.88217135        1.88693747
 C           -3.75661612        1.37056065        0.48092805
 C           -1.04728352        3.63569667        0.19750711
 C           -2.33809492        3.24636149        0.51662107
 C           -3.02139091        2.30427990       -0.35771113
 C            0.87865354        3.15467956       -1.05335460
 C           -0.55446390        3.37866185       -1.14077894
 C            2.35356523        1.32762366       -1.58863612
 C            1.46794280        2.33337153       -2.00548132
 C            3.13974665       -0.93229422       -2.09687677
 C            2.87530888        0.42809326       -2.51853947
 C            1.45271693       -2.70353406       -2.30249973
 C            2.31718653       -1.80313067       -2.92457287
 C           -0.92010947       -2.99060715       -1.70571769
 C            0.11745856       -2.77599234       -2.70574479
 C           -2.93141795       -1.73388002       -1.12200026
 C           -3.34754478       -0.34790338       -1.19804789
 C           -2.08556383       -2.21956233       -2.10148249
 C           -2.37323914        1.84836122       -1.50820291
 C           -1.29919043        2.58869127       -2.01302373
 C           -2.60114279        0.54244125       -1.96825751
 C            0.78147345        2.19581783       -3.21106283
 C           -0.67029747        2.16691158       -3.17708156
 C            2.30905538        0.34806219       -3.85311271
 C            1.86059582       -1.02087049       -4.05881342
 C            1.21526118        1.22671467       -4.19359164
 C           -0.41288838       -1.84238461       -3.69222753
 C           -1.67299544       -1.33097142       -3.17496434
 C           -1.86962847        0.04619846       -3.04928212
 C           -1.07927166        0.91856988       -3.78642384
 C            0.44437954       -0.98640112       -4.36776672
 C            0.06236102        0.40446340       -4.52928505
