   70
C70 / DATE: 7/ 1/2024 / Origin: Program Fullerene / C70 from database
 C            1.62507752       -0.01996655        4.54692547
 C            0.80889203       -1.21922951        4.47973915
 C            1.25836702       -2.00791167        3.34687523
 C            2.57612067       -0.07264350        3.45251925
 C            2.44032991       -1.35748346        2.80383025
 C            2.39674963        1.10936565        2.63669235
 C            0.75256759        1.11627510        4.31503018
 C            1.22913090        1.81414412        3.13884038
 C           -0.57771130       -0.80996593        4.52109851
 C           -0.61322175        0.63519860        4.31562075
 C           -1.50617117       -1.59623641        3.85541526
 C            0.31235401       -2.53632937        2.46150928
 C           -1.04210954       -2.49724849        2.80316127
 C            0.68426116       -2.75148815        1.12712376
 C            2.63033922       -1.41985793        1.43468240
 C            1.99274650       -2.44472643        0.75668765
 C            2.54459932        0.98252637        1.25869866
 C            2.92582759       -0.25005070        0.72486234
 C            1.87286521        1.87659684        0.43485678
 C            0.30119591        2.27986072        2.21705929
 C            0.73354193        2.53142371        0.91659845
 C           -1.51061971        1.16641778        3.39105435
 C           -1.06715992        2.11909692        2.46311761
 C           -2.71952239       -0.95965875        3.38274181
 C           -2.69360374        0.47053535        3.14511700
 C           -2.03792527       -2.49649990        1.74651240
 C           -3.10839736       -1.60060018        2.13930785
 C           -0.29993927       -2.84285121        0.13289226
 C           -1.61135953       -2.47652192        0.42748163
 C            0.07921209       -2.98619521       -1.20498398
 C            2.40558749       -2.68985965       -0.53934517
 C            1.42785739       -3.13913349       -1.50737556
 C            3.11124499       -0.35942210       -0.65749745
 C            3.17866376       -1.65079231       -1.18653720
 C            2.12410961        1.83832932       -0.93172783
 C            2.75022905        0.71642572       -1.48553719
 C            1.49974325        2.77123687       -1.75558372
 C           -0.11091624        3.20768772        0.03792735
 C            0.31664506        3.45438358       -1.26329501
 C           -1.97373918        2.63257005        1.53902976
 C           -1.47701257        3.23849290        0.31167483
 C           -3.42766909        0.70949549        1.91615187
 C           -3.51098620       -0.55853360        1.21072373
 C           -3.14830955        1.85020904        1.18693573
 C           -2.34430578       -1.75330006       -0.51226822
 C           -3.06627864       -0.63069521       -0.10752920
 C           -0.81367798       -2.61059323       -2.21000862
 C           -2.02647786       -1.89680073       -1.85207387
 C           -0.32252894       -2.03747636       -3.45518802
 C            1.92604142       -2.75545726       -2.81991402
 C            3.06450910       -1.87149589       -2.61290912
 C            1.02848986       -2.11060121       -3.75916545
 C            2.80566270        0.58756743       -2.87559350
 C            2.90562280       -0.72753128       -3.47762640
 C            1.70163863       -0.93208497       -4.27033694
 C            1.29024558        2.47188708       -3.16403246
 C            1.85976148        1.32512824       -3.68829460
 C            0.98881891        0.33336705       -4.30438737
 C           -0.66883990        3.44830403       -2.33022651
 C           -0.10584106        2.72911480       -3.45642840
 C           -2.42249450        2.90328401       -0.74413743
 C           -3.18171892        1.77089333       -0.26118186
 C           -3.02259876        0.53353077       -0.88263844
 C           -1.97681653        2.88834918       -2.05415940
 C           -2.14382435       -0.74370614       -2.72676885
 C           -1.05591711       -0.80103336       -3.69268988
 C           -0.38209961        0.37016289       -4.04130437
 C           -0.96970996        1.59753220       -3.74475474
 C           -2.51905475        0.48228609       -2.18721339
 C           -2.09049084        1.65230316       -2.81578064
