   70
C70 / DATE: 7/ 1/2024 / Origin: Program Fullerene / C70 from database
 C            1.56361238       -0.23423485        5.13311245
 C            0.69406299       -1.38069810        4.97585813
 C            1.25191443       -2.21686342        3.92595300
 C            2.65860842       -0.37985646        4.18862503
 C            2.39013752       -1.53172748        3.35462202
 C            2.82063241        0.89538192        3.53043675
 C            0.81163455        0.94517913        4.73789426
 C            1.66308922        1.71416447        3.86834911
 C           -0.58854055       -0.89527866        4.49660920
 C           -0.46585934        0.51875815        4.21258177
 C            0.16745266       -2.56131424        3.03920477
 C           -0.98308779       -1.75708985        3.40956255
 C            0.42356154       -2.68183863        1.67960875
 C            2.44285423       -1.36742713        1.97146932
 C            1.59028546       -2.12218340        1.14623309
 C            3.24072170        0.91593230        2.20368823
 C            3.11590566       -0.25858243        1.44441497
 C            3.12017523        2.14382153        1.55869173
 C            1.08728082        2.43709843        2.83420418
 C            1.99863902        2.98150673        1.94359815
 C           -0.86080897        0.97543709        2.95338701
 C           -0.17635640        2.04013648        2.34758510
 C           -1.70901431       -1.21255936        2.36212416
 C           -1.70534370        0.17322530        2.17596140
 C           -0.68642626       -2.73663075        0.85462440
 C           -1.80963566       -1.99415113        1.22470125
 C           -0.48593504       -2.99431049       -0.48913441
 C            1.70581583       -2.01396164       -0.24974599
 C            0.66930851       -2.47276779       -1.08101471
 C            3.35410765       -0.21763359        0.07516104
 C            2.67328900       -1.16787494       -0.78713541
 C            3.26425768        2.22955604        0.11821536
 C            3.38780271        1.06230878       -0.61598739
 C            1.51340214        3.65373817        0.76943276
 C            2.36139207        3.26428114       -0.34750455
 C           -0.62822598        2.51209526        1.10415336
 C            0.14292878        3.42200355        0.38120194
 C           -2.19297024        0.66668224        0.96298507
 C           -1.66929003        1.85369326        0.43930948
 C           -2.67817475       -1.57387441        0.22967755
 C           -2.90114906       -0.19958077        0.11861881
 C           -1.62760426       -3.17546744       -1.25607365
 C           -2.79086321       -2.39120877       -0.89033706
 C           -1.51666247       -3.17091972       -2.69525313
 C            0.63514116       -2.05589386       -2.42170241
 C           -0.35107915       -2.54457545       -3.27586472
 C            2.41015180       -0.50428226       -2.05202435
 C            2.65793969        0.91404192       -1.86740740
 C            1.30298205       -0.88971161       -2.78593258
 C            1.48826958        2.98821807       -1.47216530
 C            0.14087414        3.34290208       -1.06405542
 C            1.66647243        1.83077574       -2.22892365
 C           -1.93964748        2.19170965       -0.89283613
 C           -0.90355937        2.68680349       -1.68266475
 C           -3.49650651        0.31878572       -1.02793267
 C           -3.01576564        1.58846623       -1.53750511
 C           -3.39182572       -1.88450370       -2.10706826
 C           -2.69624067       -2.50737139       -3.22588811
 C           -3.76909570       -0.54891681       -2.16534243
 C           -0.81327117       -1.69727335       -4.36420228
 C           -2.26926169       -1.69882142       -4.35142278
 C            0.61826541        0.08509034       -3.50701787
 C            0.59760018        1.39133319       -3.01497958
 C           -0.62954624        2.04803463       -2.88451633
 C           -0.36798351       -0.31619837       -4.40084587
 C           -2.98911902        1.50064832       -2.99140096
 C           -3.55188658        0.22036089       -3.38033359
 C           -2.71955561       -0.32342322       -4.44080698
 C           -1.70820042        1.64573217       -3.65838370
 C           -1.54207652        0.52110444       -4.55844661
