   70
C70 / DATE: 7/ 1/2024 / Origin: Program Fullerene / C70 from database
 C            0.90940283        0.11127136        5.02371665
 C            2.21067035       -0.21638734        4.49516471
 C            2.14719593       -1.60065629        4.05022232
 C            0.06768225       -1.06387409        4.84518526
 C            0.74407193       -1.91454292        3.88702706
 C           -1.25942358       -0.59266902        4.52993373
 C            0.19120004        1.22723778        4.44576764
 C           -1.21039846        0.86142468        4.49519974
 C            0.67420127        1.85821594        3.29642454
 C            2.71440671        0.55294174        3.37531604
 C            1.85688853        1.41294773        2.68368071
 C            3.00771175       -1.70845979        2.90060385
 C            3.52106849       -0.37380741        2.61952904
 C            2.44577195       -2.20188972        1.66049534
 C            0.21415238       -2.06256542        2.59718837
 C            1.06462785       -2.33869624        1.51463438
 C           -1.86304989       -1.01658536        3.28696952
 C           -1.13882070       -1.78067189        2.36417561
 C           -2.07644431        1.30367821        3.41598708
 C           -2.62470074        0.11285483        2.79217634
 C           -0.21412147        2.64880101        2.57462277
 C           -1.63558392        2.32969216        2.59687704
 C            0.12105770        3.06225429        1.22945759
 C            2.09843881        1.68907906        1.32317460
 C            1.31386626        2.64336744        0.65685598
 C            3.55053206       -0.23333379        1.18400631
 C            3.16877202       -1.51166932        0.62132525
 C            3.00955492        0.90191168        0.59251500
 C            2.61727748       -1.48230822       -0.64240779
 C            0.54771557       -2.36617732        0.21382045
 C            1.40751467       -2.14001234       -0.86687201
 C           -1.64816929       -1.85971167        1.06565989
 C           -0.82811952       -2.29296146        0.01777351
 C           -2.91566156        0.11921420        1.43815005
 C           -2.77183613       -1.08738812        0.77010232
 C           -2.11706972        2.38294459        1.22796697
 C           -1.09564337        3.02057149        0.42855420
 C           -2.78915792        1.29571808        0.69083838
 C           -0.99197789        2.70387442       -0.92269135
 C            1.44669212        2.81031960       -0.71839245
 C            0.23902788        2.91813292       -1.52674223
 C            2.91998495        0.87772355       -0.79888096
 C            2.90041648       -0.37349278       -1.42554122
 C            2.37965949        1.97914982       -1.44479105
 C            2.60268632       -0.47869852       -2.77401262
 C            0.90351475       -2.12922127       -2.16985480
 C            1.70842707       -1.55219096       -3.15931703
 C           -1.34579725       -2.33250199       -1.28240780
 C           -0.47486721       -2.26874698       -2.38189197
 C           -3.33045017       -1.17530957       -0.48774609
 C           -2.70148896       -2.04642145       -1.44927450
 C           -2.88352073        1.19284443       -0.69665881
 C           -1.88926550        1.78941176       -1.49618911
 C           -3.55993842        0.07759725       -1.17625498
 C           -1.69047992        1.35306623       -2.82123799
 C            0.51428927        2.33659446       -2.82242779
 C            1.88715588        1.84895794       -2.80456555
 C            2.19716232        0.70169570       -3.51566194
 C           -0.46657097        1.59064111       -3.46785313
 C            1.15244307       -1.18392967       -4.44162662
 C            1.27800268        0.26184074       -4.55101920
 C           -0.06941708        0.79589285       -4.54631441
 C           -0.99098635       -2.18642411       -3.68314864
 C           -0.22337734       -1.52170529       -4.71663575
 C           -0.91944981       -0.27768977       -5.01541737
 C           -3.20775745       -1.61432167       -2.73536169
 C           -3.55606972       -0.20661503       -2.59066018
 C           -2.64880965        0.53764065       -3.42954526
 C           -2.34741289       -1.72448967       -3.88487129
 C           -2.24740615       -0.39338324       -4.46482469
