   70
C70 / DATE: 7/ 1/2024 / Origin: Program Fullerene / C70 from database
 C            0.98784844        0.21233923        4.97447731
 C            2.27212363       -0.14744914        4.42430365
 C            2.19935691       -1.55847874        4.07720497
 C            0.13964818       -0.96941681        4.89340396
 C            0.79206619       -1.88192353        3.97688212
 C           -1.19623289       -0.51641643        4.58126796
 C            0.25175019        1.29278301        4.35458315
 C           -1.14770200        0.93242861        4.46783577
 C            0.69901470        1.85444060        3.15546785
 C            2.73233096        0.54433567        3.23661249
 C            1.84460482        1.35099424        2.51877642
 C            3.02670237       -1.74336294        2.91154576
 C            3.51933188       -0.42913132        2.51975243
 C            2.43215041       -2.32775441        1.72702513
 C            0.22842834       -2.11426881        2.71564808
 C            1.05066558       -2.48026951        1.63614929
 C           -1.82803797       -1.00619909        3.37569730
 C           -1.12972111       -1.83566202        2.49424860
 C           -2.04337852        1.31875090        3.39302070
 C           -2.58649777        0.09825170        2.82106167
 C           -0.20687594        2.61604494        2.42756070
 C           -1.63143704        2.31783834        2.52886851
 C            0.07601737        2.94311507        1.04595906
 C            2.01675977        1.51149610        1.12760103
 C            1.16815305        2.36582987        0.40670096
 C            3.49795437       -0.38955799        1.07810977
 C            3.11373427       -1.70855863        0.61816132
 C            2.92268761        0.69666682        0.42911421
 C            2.52740632       -1.77039437       -0.63073605
 C            0.49331022       -2.61463358        0.36207000
 C            1.29486627       -2.41004516       -0.77474764
 C           -1.66112297       -2.00002315        1.21459671
 C           -0.89033089       -2.62684837        0.23628658
 C           -2.87798950        0.04678744        1.46431610
 C           -2.72774032       -1.17911695        0.83110192
 C           -2.17105582        2.33365163        1.18420282
 C           -1.19482623        2.99268118        0.34620509
 C           -2.82045016        1.20818129        0.68477308
 C           -1.19892229        2.70828055       -1.00524449
 C            1.17607110        2.34473946       -0.99449591
 C            0.01603651        2.73428961       -1.67744714
 C            2.77975175        0.57209063       -0.95012120
 C            2.79860582       -0.71939804       -1.48724367
 C            2.14675956        1.59017318       -1.65363503
 C            2.47692088       -0.90620941       -2.81708162
 C            0.71614019       -2.44005750       -2.05426228
 C            1.35967849       -1.78649281       -3.11167271
 C           -1.45349984       -2.89743717       -1.00373364
 C           -0.63242142       -2.75663497       -2.19205499
 C           -3.27968360       -1.31851803       -0.43038577
 C           -2.76181821       -2.35075064       -1.30143539
 C           -2.96442593        1.08984136       -0.70241094
 C           -2.24905302        1.95756870       -1.53707082
 C           -3.45282764       -0.11282254       -1.21799535
 C           -2.30351713        1.78178945       -2.91814834
 C           -0.00768426        2.75317978       -3.06523117
 C           -1.21881107        2.31057059       -3.73291829
 C            2.16210774        1.54024932       -3.04594489
 C            2.38219206        0.25460832       -3.67583117
 C            1.11787955        2.21132696       -3.79356515
 C            0.56195282       -1.14398651       -4.14565578
 C           -0.84323112        1.28186353       -4.68954374
 C            1.29743069        0.02176882       -4.61118115
 C            0.60077188        1.27696048       -4.78494314
 C           -1.42521124       -2.07771096       -3.21051535
 C           -2.74065102       -1.82418012       -2.65396822
 C           -3.22882447       -0.45834590       -2.61324381
 C           -2.64390973        0.47506321       -3.45272030
 C           -0.82356954       -1.10257463       -4.00069926
 C           -1.53775019        0.06364960       -4.30470806
