   70
C70 / DATE: 7/ 1/2024 / Origin: Program Fullerene / C70 from database
 C            1.34606462       -0.15040118        4.49500360
 C            2.61703260       -0.30845165        3.81217443
 C            2.57402873       -1.56014277        3.07808696
 C            0.50149552       -1.28142290        4.13936573
 C            1.23701945       -2.11210640        3.21067604
 C           -0.78956576       -0.76577254        3.72823479
 C            0.57344923        1.05975041        4.27959260
 C           -0.79869864        0.65745059        4.01814590
 C            1.12940167        2.11498413        3.56207717
 C            3.06057196        0.72550032        2.89527442
 C            2.40162004        1.94638129        2.86774942
 C            3.08594314       -1.31856142        1.73652422
 C            3.42227524        0.09047267        1.63712524
 C            2.44187198       -1.93154379        0.66573695
 C            0.60639328       -2.55091848        2.05552027
 C            1.40447381       -2.81521182        0.95076712
 C           -1.35788122       -1.22406002        2.53952680
 C           -0.74927475       -2.27154768        1.84378650
 C           -2.32245898       -0.44545021        1.90015380
 C           -1.62360950        1.48009452        3.26749320
 C           -2.53547253        0.86973865        2.31867743
 C            0.27516712        2.95364554        2.73434943
 C           -1.07785924        2.67264838        2.63061977
 C            2.32045147        2.66923980        1.61340076
 C            1.01808523        3.30901545        1.53814395
 C            3.17997749        0.75160872        0.43636974
 C            2.84571688        2.11329747        0.45233476
 C            2.47651764       -1.32250634       -0.59185646
 C            2.94740529       -0.01285138       -0.71299920
 C            1.79399869       -1.92348496       -1.65620577
 C            0.83733661       -3.52586552       -0.08882075
 C            1.20598641       -3.16602247       -1.44258694
 C           -1.34822501       -2.76769798        0.68226015
 C           -0.60278730       -3.66871791       -0.08232177
 C           -2.83591938       -0.85533989        0.66974039
 C           -2.40609194       -2.05542185        0.09697055
 C           -3.55338068        0.06011650       -0.10344845
 C           -2.84256754        1.88575895        1.33090097
 C           -1.72941539        2.81673529        1.33970203
 C           -3.35491892        1.47940407        0.11561699
 C            0.38076065        3.37016260        0.29833447
 C           -0.95861495        2.97661966        0.18602889
 C            2.50354953        2.73735876       -0.74087166
 C            1.19204362        3.36557847       -0.83153877
 C            2.90449251        0.61251768       -1.95244759
 C            2.75655907        2.05071335       -1.98876246
 C            1.42091341       -1.16002945       -2.76905776
 C            2.06275435        0.05461038       -2.99693763
 C            0.23732725       -1.44933434       -3.46259294
 C            0.12290877       -3.60153269       -2.30141975
 C           -0.98994646       -3.98315653       -1.44112611
 C           -0.38527136       -2.68232827       -3.29534806
 C           -2.89724914       -2.41486236       -1.16234101
 C           -2.18978354       -3.38458283       -1.97284143
 C           -1.83668389       -2.72990258       -3.22177920
 C           -3.64674863       -0.12617576       -1.53935259
 C           -3.35989149       -1.37592556       -2.06527790
 C           -2.58034000       -1.48295796       -3.29030157
 C           -2.75750204        2.00134505       -1.09877968
 C           -1.47940296        2.56055086       -1.04854015
 C           -3.09741018        1.07151203       -2.16285632
 C            0.62663452        3.02775548       -2.12102005
 C            1.66492092        2.36358956       -2.89130631
 C            1.32410180        1.15087879       -3.60802408
 C           -0.67361130        2.54327934       -2.19156300
 C           -0.50335324       -0.40963111       -4.01991801
 C           -1.93938925       -0.35788315       -3.79496650
 C           -2.24678675        0.95635816       -3.25107290
 C           -0.00331718        0.94799309       -3.94579488
 C           -1.02582137        1.74513575       -3.28238777
