   70
C70 / DATE: 7/ 1/2024 / Origin: Program Fullerene / C70 from database
 C            1.54967814        0.03749901        4.61411173
 C            0.73663398       -1.13239334        4.35071561
 C            1.37746990       -1.90663574        3.30017919
 C            2.65337302        0.02839054        3.67012409
 C            2.52096735       -1.14131416        2.83589117
 C            2.68296535        1.31647230        3.02201817
 C            0.73501301        1.20491169        4.32229332
 C            1.50333556        2.05325274        3.45103051
 C           -0.62034154       -0.67649756        4.12683314
 C           -0.55021210        0.74919399        3.84572008
 C           -1.42271710       -1.45538077        3.31921064
 C            0.56499133       -2.53632756        2.35564893
 C           -0.80794952       -2.55221651        2.58371349
 C            1.03277398       -2.68818775        1.04388887
 C            2.70501669       -1.01838830        1.46875751
 C            2.21693561       -2.03829671        0.66748215
 C            3.03057692        1.39571319        1.67396714
 C            2.98364915        0.23058060        0.88504399
 C            2.79580350        2.62814433        1.06503985
 C            0.84570632        2.78769870        2.47965040
 C            1.69191013        3.41834395        1.58567278
 C           -1.02889736        1.23497921        2.62321449
 C           -0.40141546        2.32793704        2.00609733
 C           -2.30094451       -0.78895120        2.38142124
 C           -1.95844630        0.47405876        1.90886441
 C           -1.70143739       -2.86030768        1.48870129
 C           -2.70328787       -1.80410736        1.43610054
 C            0.19588471       -3.25419602        0.06733436
 C           -1.18488250       -3.33601327        0.28920782
 C            0.69837935       -3.50501283       -1.20904569
 C            2.65053212       -2.07632870       -0.64497929
 C            1.96573819       -2.92193664       -1.59498851
 C            2.95557534        0.34212162       -0.51536944
 C            2.94307925       -0.81366645       -1.29217089
 C            2.72265850        2.71297197       -0.37862468
 C            2.54371715        1.53929679       -1.09954897
 C            1.11633618        4.15964108        0.49726904
 C            1.92060323        3.88174952       -0.68097836
 C           -0.89150171        2.79326375        0.77370658
 C           -0.25649187        3.87552662        0.15533730
 C           -2.27646860        0.80897444        0.59063295
 C           -1.81259554        2.01704770        0.04612534
 C           -3.16751344       -1.41978992        0.19120366
 C           -3.04873116       -0.07407071       -0.18224733
 C           -2.05889286       -3.35243553       -0.79813848
 C           -3.16097610       -2.40600146       -0.79096359
 C           -0.17828775       -3.38158248       -2.35756069
 C           -1.54708008       -3.42315694       -2.15736951
 C            1.74531161       -2.13764744       -2.80094653
 C            2.20602843       -0.79436703       -2.54161658
 C            0.37207034       -2.32935333       -3.19989595
 C            1.71464104        1.50984030       -2.23369391
 C            1.36708370        0.28310086       -2.79206151
 C            1.01649456        3.82774492       -1.80321831
 C           -0.32919836        4.01392214       -1.27992762
 C            0.98956480        2.62856515       -2.61583068
 C           -2.10203086        2.34496385       -1.29187285
 C           -1.18918657        3.11338488       -1.99881471
 C           -0.38622435        2.43821960       -3.00609864
 C           -3.47345649        0.32384796       -1.44404229
 C           -2.82615916        1.45224037       -2.06712204
 C           -3.46888947       -2.06475715       -2.16069245
 C           -2.39149458       -2.58172381       -2.99000389
 C           -3.65179934       -0.66975909       -2.49093184
 C           -0.41978284       -1.22620082       -3.51219806
 C            0.06178339        0.08085110       -3.28607777
 C           -0.81505582        1.17727746       -3.40526047
 C           -2.17955638        0.95621129       -3.27189396
 C           -1.78700828       -1.45141135       -3.67303154
 C           -2.71336857       -0.34952385       -3.55499211
