   70
C70 / DATE: 7/ 1/2024 / Origin: Program Fullerene / C70 from database
 C            1.20729558        0.15625140        4.87362890
 C            2.44462621        0.03415513        4.13009204
 C            2.53597157       -1.34370025        3.69901526
 C            0.39973876       -1.02075560        4.57545293
 C            1.19739667       -1.90407172        3.75482071
 C           -0.87015135       -0.56288887        4.06026838
 C            0.38210503        1.31903260        4.63374045
 C           -0.96666080        0.85023312        4.36001743
 C            0.73352759        2.20981642        3.54420238
 C            2.64669287        0.86353568        2.95078660
 C            1.69754918        1.81984130        2.60899564
 C            3.21192287       -1.35175084        2.41907285
 C            3.19328721        0.01327827        1.90830037
 C            2.87819343       -2.36409276        1.54101161
 C            0.66178000       -2.43317923        2.58172519
 C            1.56312551       -2.98236319        1.67608144
 C           -1.29262934       -0.99192115        2.80917263
 C           -0.57831615       -1.97593969        2.10834163
 C           -2.23537230       -0.22233441        2.13275964
 C           -1.52602005        1.72890296        3.34495277
 C           -0.52445003        2.74615506        3.06850129
 C           -2.21499321        1.16881382        2.26866878
 C           -0.54416039        3.34664417        1.82539239
 C            1.52316553        2.16098719        1.26582235
 C            0.60505000        3.15784885        0.95483786
 C            2.82681015        0.23215924        0.57738008
 C            1.98459177        1.30233454        0.25716720
 C            3.05571044       -2.11875038        0.13017143
 C            2.99046677       -0.80729622       -0.34235489
 C            1.11695268       -3.33232999        0.34018944
 C            2.26054519       -3.12933287       -0.53043150
 C           -1.03007980       -2.36774293        0.83805711
 C           -0.13810529       -2.91239684       -0.08985649
 C           -2.88917159       -0.78871669        1.05269890
 C           -2.27744715       -1.93354531        0.40124509
 C           -3.42904400        0.07592283        0.02212136
 C           -2.45086311        1.96866984        1.14640573
 C           -1.70779895        3.13905348        0.99070742
 C           -3.11158608        1.43352454        0.03695985
 C            0.12943245        3.29811569       -0.40808998
 C           -1.30264369        3.53978433       -0.33761933
 C            1.54053673        1.45369488       -1.06397069
 C            0.61503145        2.45282773       -1.39726346
 C            2.64534803       -0.61120467       -1.68055646
 C            1.99203868        0.57184982       -2.05067408
 C            2.02937968       -2.96363261       -1.87779073
 C            2.53096683       -1.74996053       -2.48472020
 C           -0.36803580       -2.76656630       -1.46582496
 C            0.66506674       -3.07226420       -2.34967976
 C           -2.53317554       -1.82283375       -1.02415816
 C           -3.39672064       -0.67248957       -1.22606742
 C           -1.50084639       -2.07914772       -1.92100458
 C           -3.34145311        0.01017961       -2.42931056
 C           -3.12749312        2.15522801       -1.15739039
 C           -2.08705523        3.14154893       -1.40213379
 C           -3.36272196        1.46041547       -2.41248331
 C           -0.08520156        2.37975882       -2.60415231
 C           -1.42873396        2.75756136       -2.63520114
 C           -2.37097735        1.93306768       -3.36492716
 C            1.57842146        0.76181591       -3.37045353
 C            0.41298902        1.58565698       -3.63114024
 C            1.87706831       -1.67086498       -3.77234592
 C            0.66753837       -2.48241828       -3.67117046
 C            1.49621849       -0.37172153       -4.26968799
 C           -1.52030326       -1.47869656       -3.19121264
 C           -2.38266639       -0.40776384       -3.43796191
 C           -1.85551842        0.78876894       -4.08354980
 C           -0.51587720        0.80060640       -4.44184454
 C           -0.44605592       -1.65023750       -4.06186863
 C            0.11578789       -0.47512999       -4.70186810
