   70
C70 / DATE: 7/ 1/2024 / Origin: Program Fullerene / C70 from database
 C            1.01601281       -0.05658547        4.66688212
 C            2.28724073       -0.37722970        4.05556837
 C            2.24041290       -1.77161837        3.65614236
 C            0.18221427       -1.24870113        4.60715674
 C            0.85657586       -2.20182921        3.75179506
 C           -1.15528603       -0.83262273        4.25841935
 C            0.24017246        1.03816575        4.12052059
 C           -1.14451599        0.61514938        4.11343246
 C            0.70728003        1.74515367        3.01678406
 C            2.71458858        0.38577060        2.90066517
 C            1.96441318        1.46614819        2.45876447
 C            2.90913121       -1.88798205        2.37267893
 C            3.21659863       -0.54262503        1.90693682
 C            2.40491760       -2.79982290        1.46170805
 C            0.23189188       -2.69296913        2.60309706
 C            1.04368173       -3.28585968        1.64162210
 C           -1.76324221       -1.37709724        3.06219936
 C           -1.05978916       -2.26731254        2.24567096
 C           -1.95690138        0.94773468        2.95392405
 C           -2.49458543       -0.29363100        2.43433303
 C           -0.22184916        2.44792945        2.24900671
 C           -1.48591601        1.88955730        2.04395621
 C            0.26518023        3.35636131        1.32114058
 C            2.24621506        1.96846010        1.19326985
 C            1.61590473        3.15136181        0.83795011
 C            3.05047379       -0.22784197        0.55572654
 C            2.68125742        1.07839326        0.19660000
 C            2.57950947       -2.53725536        0.04781606
 C            2.93787399       -1.26358619       -0.37764607
 C            0.50753988       -3.58041671        0.33079496
 C            1.52191443       -3.24118011       -0.65543498
 C           -1.52449858       -2.45628718        0.93498207
 C           -0.81333970       -3.27833733        0.04883745
 C           -2.73887820       -0.38583638        1.07593103
 C           -2.53690566       -1.61023314        0.45705156
 C           -2.03254419        1.90101538        0.75762637
 C           -2.71857962        0.76920693        0.29396169
 C           -0.55369221        3.70165165        0.17534266
 C           -1.65920787        2.91274230       -0.12988499
 C            1.67637804        3.60611462       -0.53042734
 C            0.35319490        4.08443172       -0.89096427
 C            2.59425255        1.42529670       -1.16126378
 C            2.10068000        2.66869959       -1.54308608
 C            2.76018784       -0.95808142       -1.71871076
 C            2.63227469        0.42632208       -2.12430237
 C            1.11408314       -2.78411334       -1.90721991
 C            1.82786790       -1.74928391       -2.51161493
 C           -1.19287046       -3.34369536       -1.28644155
 C           -0.19856210       -3.03219138       -2.30451080
 C           -3.04884414       -1.77461102       -0.82039368
 C           -2.44693508       -2.75424466       -1.69326142
 C           -3.10531430        0.67644522       -1.04666855
 C           -3.33174043       -0.58505541       -1.60790087
 C           -2.13067066        2.89178214       -1.44060971
 C           -2.93365383        1.77034645       -1.88861658
 C            0.06470629        3.62900379       -2.23495862
 C            1.15113207        2.74508086       -2.64494622
 C           -1.23897640        3.26925667       -2.53343365
 C            1.70430242        0.48447931       -3.24400352
 C            1.16242780       -0.85129494       -3.44470344
 C            0.87656368        1.59463160       -3.38990731
 C           -0.83203510       -2.17779754       -3.29748331
 C           -2.25043695       -2.13684447       -2.99301037
 C           -2.91651256       -0.85162383       -2.98022130
 C           -0.19199297       -1.01353389       -3.71546118
 C           -2.61831645        1.53799840       -3.28698191
 C           -1.45448487        2.33727424       -3.61842319
 C           -0.37836707        1.43097222       -3.97605120
 C           -2.35915184        0.17972096       -3.71764050
 C           -0.95045556        0.09657336       -4.09211057
