   70
C70 / DATE: 7/ 1/2024 / Origin: Program Fullerene / C70 from database
 C            1.20574881        0.08375208        4.90836086
 C            2.48978178       -0.02205050        4.25027694
 C            2.58347500       -1.36287366        3.70771977
 C            0.40595417       -1.06903060        4.51047126
 C            1.24597738       -1.93286726        3.71229540
 C           -0.82173828       -0.57523768        3.92558415
 C            0.40994725        1.26646931        4.66960816
 C           -0.91964189        0.81882018        4.29152850
 C            0.84149784        2.22591364        3.66359430
 C            2.81581222        0.90320031        3.17733342
 C            1.98134987        1.98660901        2.89398814
 C            3.28609263       -1.28131082        2.43776227
 C            3.36456736        0.12535445        2.07396661
 C            2.94272753       -2.19470199        1.45748283
 C            0.75786786       -2.45161770        2.51781572
 C            1.70044085       -2.93098901        1.62081372
 C           -1.14679664       -0.94558225        2.62198580
 C           -0.48509814       -2.02478362        2.02137408
 C           -1.94443727       -0.09829811        1.83973803
 C           -1.41351210        1.73782047        3.29592828
 C           -0.36573820        2.70792252        3.01439475
 C           -2.12921214        1.24070158        2.21865232
 C           -0.29758726        3.24052905        1.72744671
 C            2.07925073        2.58223052        1.64075676
 C            0.93734133        3.29305896        1.08212415
 C            3.09441742        0.52894196        0.76453753
 C            2.71767594        1.84908103        0.55823290
 C            2.98163161       -1.77481048        0.07121653
 C            2.85253616       -0.42543285       -0.23343297
 C            1.26876817       -3.33200712        0.30685901
 C            2.17724149       -2.73346653       -0.65712327
 C           -0.91535795       -2.46989336        0.76334018
 C           -0.08298937       -3.31450987        0.01001794
 C           -2.33646114       -0.52542057        0.56602090
 C           -1.98263065       -1.80594411        0.14193789
 C           -2.93337095        0.36953110       -0.33446102
 C           -2.43940959        2.16825967        1.24175633
 C           -1.45812540        3.20457943        0.95773993
 C           -2.98305205        1.72025257       -0.01745052
 C           -1.37690131        3.32645029       -0.48714790
 C           -2.57161940        2.68826071       -1.01516753
 C            1.01104473        3.16593564       -0.36935514
 C            2.06803210        2.22405404       -0.67872038
 C           -0.15574735        3.11965709       -1.12479391
 C            2.20016665       -0.06577212       -1.42074131
 C            1.82430865        1.26328098       -1.64446064
 C            1.65193599       -2.38047560       -1.89210986
 C            1.80328226       -1.06118370       -2.32998746
 C           -0.39989199       -3.56992774       -1.31637101
 C            0.54429945       -3.10901067       -2.32262979
 C           -2.49422816       -2.28634117       -1.05925130
 C           -1.73013382       -3.27218660       -1.78800148
 C           -3.13067539       -0.00240320       -1.66699640
 C           -3.02739716       -1.34234204       -2.02529112
 C           -2.57492558        2.29262994       -2.33874938
 C           -3.10441014        0.98002643       -2.65935100
 C           -0.14060124        2.46344145       -2.36094213
 C            0.89317084        1.55230077       -2.63522406
 C           -1.33576610        2.40730757       -3.07924192
 C            1.22983524       -0.68337285       -3.54540344
 C            0.82644477        0.69817360       -3.72926881
 C           -0.20936277       -2.66582672       -3.47834229
 C           -1.62124344       -2.83315240       -3.16858835
 C           -2.51904899       -1.70757628       -3.34428697
 C            0.20445999       -1.52439449       -4.14945915
 C           -2.59144681        0.65116600       -3.97725649
 C           -1.46033972        1.53429147       -4.23036465
 C           -0.33074117        0.71547040       -4.60097203
 C           -2.16780152       -0.70846026       -4.24370976
 C           -0.79964298       -0.65222027       -4.73800869
