   70
C70 / DATE: 7/ 1/2024 / Origin: Program Fullerene / C70 from database
 C            1.06426916       -0.04922430        4.60496887
 C            2.34298801       -0.34685401        4.00337223
 C            2.25870804       -1.68537799        3.43734343
 C            0.21914857       -1.22121968        4.43391997
 C            0.86324394       -2.06766051        3.45029258
 C           -1.12141172       -0.75136181        4.16894389
 C            0.31517425        1.08769508        4.11250047
 C           -1.07891939        0.70281817        4.14191931
 C            0.77150158        1.80108603        3.00644199
 C            2.84008150        0.52349666        2.95630567
 C            2.04779030        1.56381292        2.46748414
 C            2.94948273       -1.65775949        2.16285386
 C            3.52601157       -0.33316625        2.01001129
 C            2.35424358       -2.24697530        1.05305738
 C            0.23693327       -2.31915070        2.23040694
 C            1.01886300       -2.67282788        1.12883620
 C           -1.77819920       -1.17747569        2.95005137
 C           -1.10294868       -1.96978687        2.02551680
 C           -1.93180099        1.14162026        3.05262923
 C           -2.52557047       -0.04051279        2.45686889
 C           -0.14676605        2.56216777        2.28345333
 C           -1.48098212        2.13828929        2.19424275
 C            0.34664443        3.46970039        1.35733799
 C            2.40177092        2.15083241        1.24597399
 C            1.61986801        3.17930079        0.72992128
 C            3.74511516        0.14414326        0.72647032
 C            3.22347194        1.45109913        0.36103229
 C            2.91142739       -1.98030346       -0.19679418
 C            3.51712661       -0.74289028       -0.40402033
 C            2.39740639       -2.64036588       -1.30276237
 C            0.38785371       -3.13344772       -0.02649593
 C            1.19308683       -3.42021589       -1.12562795
 C           -1.61980500       -2.04893607        0.73443520
 C           -0.97188485       -2.84649005       -0.20286733
 C           -2.83544795        0.00497779        1.10509822
 C           -2.57409750       -1.11324739        0.31121663
 C           -2.17726694        2.31530468        0.99727166
 C           -2.93089915        1.25014209        0.49114275
 C           -0.53830247        3.99430533        0.33485261
 C           -1.83857342        3.37972384        0.16932881
 C            1.41206129        3.23656665       -0.70883205
 C            0.15354801        3.89883483       -0.94247662
 C            2.86947181        1.41345080       -1.05209471
 C            3.07911967        0.06827671       -1.53095467
 C            1.76712425        2.13446642       -1.48007016
 C            2.20592968       -1.87809889       -2.52419559
 C            2.19194685       -0.49091689       -2.43817994
 C            0.60780259       -3.58046012       -2.44079713
 C            1.19550673       -2.55710324       -3.29671930
 C           -1.60338585       -3.08214102       -1.42026523
 C           -0.82723543       -3.49147096       -2.57292644
 C           -3.01587057       -1.11446757       -1.01681434
 C           -2.59955502       -2.13083390       -1.88092298
 C           -3.43603361        1.30263697       -0.80352363
 C           -3.54270024        0.06178850       -1.55626089
 C           -2.06932798        3.27352942       -1.25751585
 C           -0.76115919        3.31217205       -1.89132387
 C           -2.98670588        2.34499313       -1.71603291
 C            0.81811993        1.52622956       -2.32174520
 C            1.03543927        0.21828094       -2.80941260
 C           -0.35477677        2.22363510       -2.66144910
 C            0.11548100       -1.77611971       -3.84754885
 C           -1.09893056       -2.54046111       -3.63393284
 C           -2.29662933       -1.81238589       -3.27467403
 C            0.07666798       -0.39755423       -3.63599894
 C           -3.27389169        0.37674444       -2.94602254
 C           -2.71694947        1.71293100       -2.99329847
 C           -1.33297272        1.59896870       -3.42353704
 C           -2.37891772       -0.49029940       -3.67730462
 C           -1.13251199        0.24354185       -3.88210372
