   70
C70 / DATE: 7/ 1/2024 / Origin: Program Fullerene / C70 from database
 C            1.50677634        0.13349817        4.82811816
 C            0.71607491       -1.07371051        4.67248016
 C            1.55335338       -2.04730654        4.01162856
 C            2.66277334        0.01667352        3.95320276
 C            2.73884111       -1.35729986        3.51970569
 C            2.56418949        1.05639771        2.94520674
 C            0.70762059        1.24274430        4.34735147
 C            1.47181128        1.93061592        3.32678607
 C           -0.54521722       -0.71013711        4.04631023
 C           -0.60050304        0.73889381        3.97433377
 C           -1.01771956       -1.44903414        2.96192112
 C            0.99214649       -2.77904634        2.89670502
 C           -0.34908943       -2.61776752        2.56590063
 C            2.83677052       -1.62857264        2.09946877
 C            1.96162098       -2.74680204        1.81713955
 C            2.71709064        0.74714158        1.59027484
 C            2.87777981       -0.58453502        1.18203309
 C            2.28270755        1.69290369        0.64993723
 C            0.76690128        2.54175944        2.30442512
 C            1.40500851        2.69460505        1.07794898
 C           -1.21933188        1.32475367        2.87712368
 C           -0.62646757        2.45376905        2.31603059
 C           -1.92821033       -0.84471224        2.08767777
 C           -2.06429115        0.55201180        2.07940111
 C           -2.55036677       -1.61768946        1.10778147
 C           -0.76288341       -3.25865366        1.40625135
 C           -1.98543924       -2.83824870        0.75639713
 C            1.48893208       -2.91292354        0.51821494
 C            0.22815547       -3.48024603        0.36235025
 C            2.65143331       -0.89611258       -0.15002722
 C            1.96070715       -2.06684247       -0.48601622
 C            2.41707311        1.41451699       -0.71921746
 C            2.76716723        0.11133912       -1.09503580
 C            1.91906563        2.32275304       -1.67059238
 C            0.81443758        3.53788672        0.15082966
 C            1.02478243        3.30264947       -1.26004632
 C           -1.33418184        3.14924603        1.34653631
 C           -0.58495300        3.87557500        0.33642315
 C           -2.78752172        1.18437510        1.06060688
 C           -2.43756048        2.47968628        0.67974216
 C           -3.46154654       -1.02540027        0.24265511
 C           -3.51349227        0.41920660        0.15530541
 C           -3.60270880       -1.55100054       -1.10588831
 C           -1.86252626       -3.19633904       -0.64815535
 C           -0.44801645       -3.38328939       -0.92179240
 C           -2.64507777       -2.53443071       -1.57876742
 C            1.45988014       -2.20270119       -1.78098204
 C            0.15126431       -2.67439713       -1.96060279
 C            2.77824001       -0.26278178       -2.43217804
 C            2.08482075       -1.48676800       -2.79567776
 C            1.83810780        1.94498683       -3.00823572
 C            2.48906918        0.73105822       -3.43628575
 C            0.53174159        1.99895043       -3.65072299
 C           -0.26907521        3.36435625       -1.92243856
 C           -1.26197883        3.70490528       -0.93734434
 C           -2.36041294        2.79403451       -0.74034547
 C           -0.55345396        2.39852151       -2.87907967
 C           -3.46784745        0.78006125       -1.25478453
 C           -3.58776408       -0.42787865       -2.02928830
 C           -2.58252051        1.77321374       -1.65792717
 C           -1.63236202        1.50826049       -2.67169345
 C           -2.01889078       -1.99961277       -2.77564318
 C           -0.65370854       -2.17265215       -2.99583655
 C           -2.59171615       -0.68937293       -3.03724332
 C           -1.73461690        0.32780083       -3.44335826
 C            1.35675378       -1.23763362       -4.01837267
 C            1.65803812        0.11382151       -4.45488505
 C            0.40623689        0.84947561       -4.50851708
 C           -0.07998231       -1.38417188       -3.98771470
 C           -0.66593839       -0.07437808       -4.23950865
