   70
C70 / DATE: 7/ 1/2024 / Origin: Program Fullerene / C70 from database
 C            1.49544361        0.07079665        4.51140774
 C            0.71107134       -1.14041438        4.39551439
 C            1.29611477       -1.97155646        3.35438632
 C            2.61340354       -0.04948032        3.59940009
 C            2.47839537       -1.29073024        2.86142120
 C            2.66769999        1.17323317        2.83034919
 C            0.66717186        1.17151260        4.04170704
 C            1.37944221        1.82941497        2.97072596
 C           -0.66852193       -0.73608131        4.23711541
 C           -0.64734763        0.64151982        3.76433826
 C           -1.51088113       -1.62015846        3.59157435
 C            0.43679502       -2.59202141        2.45269984
 C           -0.91093600       -2.68946473        2.80544107
 C            0.80493286       -2.68746685        1.10572308
 C            2.72411724       -1.24726917        1.49510962
 C            1.90264178       -1.96455328        0.61918147
 C            3.18565182        1.10493449        1.55062253
 C            3.43580898       -0.15531675        0.99904906
 C            2.81824417        2.11830768        0.68117979
 C            0.70107776        2.18411111        1.80436365
 C            1.47804891        2.52936524        0.69824630
 C           -1.26766312        0.94606011        2.55198296
 C           -0.61435357        1.74209709        1.59569120
 C           -2.55693366       -1.07234887        2.76046396
 C           -2.36688031        0.17782989        2.16919473
 C           -1.89698267       -3.09044853        1.81418735
 C           -3.02199158       -2.17311005        1.94117723
 C           -0.07176497       -3.27862305        0.19363306
 C           -1.46543114       -3.47608065        0.55323065
 C           -0.02803774       -2.86692566       -1.19935307
 C            2.02824765       -1.75558211       -0.75956079
 C            0.92214126       -1.93952483       -1.58058615
 C            3.86858406       -0.21085597       -0.32060362
 C            3.10065663       -1.02307479       -1.24828468
 C            3.57290194        2.24686583       -0.47335751
 C            4.18255974        1.03933532       -0.99315872
 C            3.03402500        2.98781969       -1.58941687
 C            0.84757208        2.91180254       -0.48606747
 C            1.63131866        3.34631193       -1.55765232
 C           -1.21280802        1.93499908        0.34410721
 C           -0.50500812        2.58684611       -0.68465416
 C           -3.03047934        0.46147781        0.97908832
 C           -2.48914918        1.41122902        0.10435765
 C           -3.78250620       -1.86435449        0.82827862
 C           -3.97707767       -0.46196533        0.52274338
 C           -2.27937503       -3.16215647       -0.61130542
 C           -1.38712083       -2.72548419       -1.67829324
 C           -3.50039728       -2.52326168       -0.43719109
 C           -1.72752366       -1.62888690       -2.46926935
 C            0.61757973       -0.98686398       -2.55695416
 C           -0.71991967       -0.76482913       -2.93746696
 C            2.91647791       -0.25790058       -2.47058748
 C            3.77855526        0.91003917       -2.37939779
 C            3.26384097        2.19819320       -2.79316893
 C            1.63443003       -0.14291016       -3.01688489
 C            1.14425756        3.16161801       -2.90239917
 C            2.04099707        2.22671252       -3.56189838
 C            1.29378252        0.99265890       -3.74552355
 C           -1.05479359        2.67315093       -1.97743015
 C           -1.08180151        0.45594491       -3.53248968
 C           -0.18746032        2.64362412       -3.06070059
 C           -0.09225897        1.39031191       -3.79122588
 C           -3.10685398        1.66440263       -1.11482514
 C           -2.28903519        2.09186637       -2.22221949
 C           -2.30692457        1.00699998       -3.18990240
 C           -4.44324845       -0.41565441       -0.84350534
 C           -3.98087129       -1.64041885       -1.48460614
 C           -3.06925397       -1.24607347       -2.54257379
 C           -4.03095514        0.69209419       -1.66911909
 C           -3.39144194        0.12836052       -2.84605926
