   70
C70 / DATE: 7/ 1/2024 / Origin: Program Fullerene / C70 from database
 C            1.65304174       -0.16580425        4.68341202
 C            0.81478973       -1.34364725        4.64833574
 C            1.11450498       -2.08500204        3.43265107
 C            2.57439954       -0.26280612        3.57221843
 C            2.22858541       -1.42656039        2.78011460
 C            2.54897456        1.01372410        2.90258582
 C            0.79333768        0.98355600        4.43453455
 C            1.30811821        1.66748860        3.27281472
 C           -0.54403187       -0.88702466        4.83271102
 C           -0.56667056        0.50588793        4.39720592
 C           -1.54534415       -1.71098262        4.36222714
 C            0.04246335       -2.54438442        2.67319781
 C           -1.18468862       -2.67751008        3.32929921
 C            0.08465090       -2.42883932        1.26943833
 C            2.21801633       -1.27504839        1.40013978
 C            1.22576099       -1.89948532        0.64265206
 C            2.85159032        1.03626059        1.55967782
 C            2.87853531       -0.17131090        0.85703141
 C            2.38921619        2.13286415        0.86545349
 C            0.44231462        2.03945404        2.24016927
 C            1.04140819        2.46106616        1.05085189
 C           -1.39706615        0.87141119        3.33300711
 C           -0.85044932        1.49033219        2.19205775
 C           -2.75605951       -1.06735107        3.90531305
 C           -2.62208754        0.21999890        3.23974487
 C           -2.37553002       -2.94177347        2.56147807
 C           -3.39159949       -1.98985594        2.99164128
 C           -1.04451579       -2.74974089        0.49672451
 C           -2.29125347       -2.86725073        1.12234683
 C           -1.05992727       -2.41399544       -0.86359784
 C            1.25010882       -1.72787847       -0.74449371
 C            0.13494825       -2.08332574       -1.51012750
 C            3.02018405       -0.09580479       -0.52808859
 C            2.28721025       -0.98187879       -1.32043409
 C            2.96726261        2.33508141       -0.36874741
 C            3.39761354        1.13826002       -1.06539000
 C            2.27247971        3.16871749       -1.31677075
 C            0.24079664        2.69667537       -0.06761529
 C            0.83168061        3.24969104       -1.19887951
 C           -1.55620752        1.47695476        0.97240605
 C           -0.97419569        2.02083904       -0.18079233
 C           -3.28976884        0.12459375        1.95716050
 C           -3.79020120       -1.23031181        1.82719149
 C           -3.34970922       -1.98040319        0.67902483
 C           -2.70455998        0.69786805        0.83416418
 C           -2.26011973       -1.91580121       -1.37476281
 C           -3.08466566       -1.27989345       -0.47298537
 C           -2.96212540        0.11115503       -0.40333264
 C           -2.28196717       -1.39304131       -2.64656629
 C            0.10502300       -1.78243924       -2.87872851
 C           -1.13032884       -1.57612804       -3.49107846
 C            2.37782806       -0.88801915       -2.70647777
 C            1.27133844       -1.35992384       -3.51475143
 C            3.25948790        1.38555467       -2.48659172
 C            2.59593675        2.67269138       -2.63964047
 C            2.88242546        0.33842149       -3.31256702
 C            0.27653913        2.96967063       -2.50775100
 C            1.38664489        2.74336854       -3.43212643
 C           -1.49513480        1.70244967       -1.45146928
 C           -2.52493319        0.75464882       -1.55907818
 C           -2.62840365        0.01016324       -2.73172812
 C           -0.87293942        2.19519074       -2.61504367
 C           -1.27561178       -0.57342645       -4.53172468
 C           -2.05222316        0.51381684       -3.95180333
 C           -1.18482946        1.66040693       -3.86698422
 C            1.19633038       -0.50964504       -4.69689226
 C            2.06017683        0.63356725       -4.47397084
 C            1.22827313        1.83127325       -4.46621281
 C           -0.08941105        0.00369143       -5.11809162
 C           -0.11543701        1.42949912       -4.82368672
