   70
C70 / DATE: 7/ 1/2024 / Origin: Program Fullerene / C70 from database
 C            1.63188942       -0.09031195        4.55398152
 C            0.82177288       -1.27474780        4.33755782
 C            1.35825537       -1.98870553        3.19261580
 C            2.67802821       -0.08078211        3.54781568
 C            2.54826343       -1.27744146        2.75256612
 C            2.62088782        1.18624454        2.85845402
 C            0.78417570        1.06569083        4.31780474
 C            1.40117885        1.86083955        3.28338675
 C           -0.56094700       -0.85238917        4.28834821
 C           -0.56178076        0.59054426        4.09756771
 C           -1.43604635       -1.60492334        3.52311392
 C            0.47238624       -2.48679625        2.23080717
 C           -0.88971126       -2.52088971        2.52578604
 C            0.89517632       -2.56876241        0.89825681
 C            2.77784178       -1.19301555        1.39096891
 C            2.19330468       -2.16153016        0.59445417
 C            2.94862809        1.22954620        1.50592992
 C            3.13392135        0.02994477        0.80205067
 C            2.52382429        2.34789557        0.80681138
 C            0.60497193        2.44782030        2.30572433
 C            1.27555245        2.97482629        1.21034323
 C           -1.31075848        1.12232707        3.05031574
 C           -0.73120562        2.03955911        2.15350129
 C           -2.55076892       -0.92678911        2.89301013
 C           -2.47511550        0.45017210        2.68302578
 C           -1.85531890       -2.61132630        1.44383230
 C           -2.99488171       -1.78725348        1.81211705
 C           -0.03963370       -2.71332622       -0.13808496
 C           -1.41012517       -2.60601314        0.12720882
 C            0.40656608       -2.81394788       -1.46003580
 C            2.66872938       -2.29542189       -0.69430079
 C            1.77264021       -2.77763997       -1.72257407
 C            3.32425006        0.05642461       -0.58916948
 C            3.40200455       -1.17507591       -1.24843492
 C            2.58072782        2.35007073       -0.63748028
 C            3.03571027        1.22716703       -1.31294947
 C            0.54184817        3.31838635        0.01242685
 C            1.39706657        3.03755870       -1.13171442
 C           -1.46366047        2.46013915        1.03188191
 C           -0.81076577        3.03138522       -0.06598348
 C           -3.32216874        1.03155786        1.75117241
 C           -2.80625372        2.10085072        0.91814785
 C           -3.77893548       -1.23793023        0.81131080
 C           -4.13492775        0.16644987        0.91264439
 C           -2.29690507       -2.23853397       -0.88942057
 C           -3.43903419       -1.50513772       -0.57578769
 C           -0.48533185       -2.58380118       -2.50262610
 C           -1.84380419       -2.18428249       -2.19958768
 C           -0.06062196       -1.81540703       -3.66358237
 C            2.24737465       -2.23900083       -2.98781925
 C            3.27913139       -1.25559091       -2.69027810
 C            1.29384792       -1.62959582       -3.89657710
 C            2.77325502        1.17353131       -2.68051630
 C            2.97281181       -0.05264120       -3.42336324
 C            1.77169016       -0.29594414       -4.20748686
 C            0.82654362        2.63061559       -2.33775168
 C            1.56777959        1.81028142       -3.18719017
 C            0.87832021        0.83474205       -4.01751082
 C           -1.39216430        2.97877267       -1.32855373
 C           -0.55957903        2.67543871       -2.48220828
 C           -3.41057569        1.96918579       -0.39970885
 C           -4.15186602        0.72589415       -0.42628536
 C           -3.73633338       -0.31124198       -1.35256854
 C           -2.66495850        2.31053937       -1.51451075
 C           -2.14995694       -1.00362985       -2.99492484
 C           -0.97394974       -0.68814793       -3.79064501
 C           -0.48050794        0.61562873       -3.81376053
 C           -1.23395676        1.63926065       -3.25163245
 C           -2.89985241        0.01659219       -2.41745755
 C           -2.49795299        1.34209119       -2.59245877
