   70
C70 / DATE: 7/ 1/2024 / Origin: Program Fullerene / C70 from database
 C            1.33751571       -0.22989960        4.51326647
 C            2.61689224       -0.48138795        3.87881365
 C            2.55590553       -1.79085579        3.25039527
 C            0.49100010       -1.39044588        4.29025453
 C            1.25603809       -2.36968407        3.53926174
 C           -0.77803861       -0.92687796        3.75048726
 C            0.58610136        0.95178209        4.12876605
 C           -0.73524683        0.52354562        3.70576581
 C            1.21923101        1.96369909        3.42146835
 C            3.10529092        0.46461390        2.89180006
 C            2.51641557        1.71770372        2.79778650
 C            2.96666082       -1.64491281        1.86217991
 C            3.38696118       -0.26870738        1.67019582
 C            2.22530860       -2.27393684        0.86056280
 C            0.61356952       -3.07604785        2.53507475
 C            1.25271944       -3.19292555        1.23333040
 C           -1.36180956       -1.61726288        2.68777478
 C           -0.79605699       -2.82116203        2.28158593
 C           -2.19980227       -0.92795203        1.80462636
 C           -1.36602266        1.16444213        2.64782889
 C           -2.32876641        0.46051981        1.93852652
 C            0.43885025        2.76514688        2.49504636
 C           -0.82304376        2.33022357        2.09278002
 C            2.51241768        2.39337873        1.51250027
 C            1.36006319        3.27282555        1.49727663
 C            3.14374939        0.32390853        0.43922811
 C            2.83479844        1.68590932        0.35602603
 C            2.17765058       -1.70242267       -0.41730206
 C            2.85629627       -0.50251833       -0.63943392
 C            1.29190513       -2.19999040       -1.39067231
 C            0.21203427       -3.53689227        0.29251797
 C           -1.06911383       -3.31454583        0.94825128
 C            0.33341990       -3.16475139       -1.03774248
 C           -2.70694823       -1.58079328        0.66926533
 C           -2.09540169       -2.74922175        0.20214160
 C           -3.63989655       -0.93472072       -0.13992901
 C           -3.14673316        1.17490907        1.08079455
 C           -3.91628952        0.46940678        0.08074255
 C           -1.38627825        2.86692799        0.92759941
 C           -2.60799074        2.37440563        0.47114189
 C            0.85519402        3.67338474        0.27283349
 C           -0.57343576        3.55410517        0.02457206
 C            2.48270372        2.22512958       -0.88434080
 C            1.54052955        3.25631201       -0.93988600
 C            2.89530248        0.04504818       -1.90816291
 C            2.74728786        1.48384531       -2.03345876
 C            1.28942091       -1.64125591       -2.68144803
 C            2.14436715       -0.58305383       -2.97438572
 C            0.20545107       -1.85007591       -3.53462460
 C           -0.81796087       -3.29530574       -1.80393243
 C           -2.09509872       -3.02213000       -1.16551871
 C           -0.85382172       -2.74712026       -3.13647920
 C           -3.59236479       -1.13244332       -1.57684224
 C           -2.88843967       -2.21523877       -2.07778324
 C           -2.11610083       -2.04059880       -3.29624212
 C           -3.73810535        1.16371191       -1.18614232
 C           -2.82969451        2.26505108       -0.96282590
 C           -3.39293100        0.17646252       -2.18192049
 C           -0.75525382        3.33116942       -1.40272595
 C            0.55991271        3.29160168       -2.01613399
 C           -1.75437263        2.45756216       -1.82279647
 C            1.98730331        1.74786474       -3.24199616
 C            1.67298858        0.47180235       -3.85750269
 C            0.75760363        2.50969189       -3.14060923
 C           -0.42398612       -0.70601469       -4.17766395
 C           -1.80666429       -0.69296612       -3.74218529
 C           -2.28877403        0.38681876       -3.00501360
 C           -1.48658674        1.52769658       -2.84073673
 C            0.26993443        0.48934311       -4.22559455
 C           -0.32776467        1.66416902       -3.61043754
