   70
C70 / DATE: 7/ 1/2024 / Origin: Program Fullerene / C70 from database
 C            1.63016116        0.02362421        4.55338873
 C            0.81950818       -1.17675633        4.49649108
 C            1.31292723       -2.01014218        3.41225300
 C            2.63438075       -0.07334296        3.51037558
 C            2.46633428       -1.34025963        2.83226815
 C            2.55818012        1.12901832        2.71167633
 C            0.76697189        1.14623535        4.22779352
 C            1.36035528        1.84542440        3.11091914
 C           -0.56852856       -0.76247272        4.45748639
 C           -0.58206747        0.64364442        4.07978466
 C           -1.46828911       -1.61076793        3.83609406
 C            0.38116695       -2.62090050        2.57014104
 C           -0.94325878       -2.68455323        3.00351694
 C            0.68207139       -2.75984751        1.20564906
 C            2.62070007       -1.37314823        1.45528723
 C            1.94215459       -2.35638567        0.75006876
 C            2.81725438        1.03715176        1.34987591
 C            3.03745940       -0.22156949        0.77553288
 C            2.33822035        2.05820508        0.53754171
 C            0.54092841        2.32887895        2.09999838
 C            1.15660176        2.70623106        0.91163461
 C           -1.33495217        1.03927587        2.97402397
 C           -0.82161393        1.99242554        2.07680441
 C           -2.56796660       -1.02683161        3.09509540
 C           -2.45173587        0.27841920        2.61960816
 C           -1.98579466       -3.04290329        2.06566970
 C           -3.04960162       -2.06098476        2.19835792
 C           -0.32886397       -3.02857150        0.26770292
 C           -1.65100119       -3.13698147        0.66409995
 C           -0.07784394       -2.80080331       -1.07942175
 C            2.28128749       -2.54970933       -0.58153292
 C            1.23334604       -2.91563976       -1.50992168
 C            3.26452683       -0.30617042       -0.60366097
 C            3.09402060       -1.53851526       -1.23390558
 C            2.77263034        2.09252498       -0.77969011
 C            3.28049036        0.86569782       -1.36584452
 C            1.99700822        2.79321375       -1.78765027
 C            0.39659996        3.38308270       -0.02965010
 C            0.81705191        3.42206916       -1.41874227
 C           -1.61434452        2.44025914        1.01054233
 C           -1.04395817        3.22271579        0.00797471
 C           -3.23024026        0.66802046        1.53602371
 C           -2.82855433        1.81811273        0.74827044
 C           -3.47311150       -1.67875792        0.86545983
 C           -2.65069983       -2.40579012       -0.09046876
 C           -3.74726069       -0.34294170        0.62094593
 C           -1.01500560       -2.07786634       -1.83503717
 C           -2.26606826       -1.77734039       -1.27594927
 C           -0.66634246       -1.53189522       -3.07868778
 C            1.60477115       -2.42282376       -2.81570657
 C            2.78989882       -1.59389733       -2.65370993
 C            0.63240967       -1.66347459       -3.56735956
 C            2.88122145        0.84679258       -2.76789945
 C            2.05662950        2.01972429       -3.01775495
 C            2.56984442       -0.35879161       -3.38089050
 C            1.31552560       -0.49605177       -4.10398721
 C            0.93120016        1.91875190       -3.83000383
 C            0.56916910        0.63414550       -4.41304079
 C           -0.36913153        3.28802387       -2.24822581
 C           -1.51229928        3.08496068       -1.36501888
 C           -0.29629171        2.60739971       -3.45705271
 C           -3.21900738        1.56590858       -0.63082480
 C           -3.57785332        0.16207988       -0.72564903
 C           -2.94429544       -0.62458528       -1.68185459
 C           -2.48702182        2.13300715       -1.66948011
 C           -1.48703961       -0.56371287       -3.64737257
 C           -0.87863377        0.53055490       -4.38678060
 C           -1.41176812        1.77585698       -3.85906239
 C           -2.57431456       -0.00739097       -2.86760980
 C           -2.42824776        1.44114027       -2.87890934
