   70
C70 / DATE: 7/ 1/2024 / Origin: Program Fullerene / C70 from database
 C            1.53601537        0.13938042        5.05062652
 C            0.74550203       -1.07689696        4.99197586
 C            1.51040166       -2.05897139        4.24862463
 C            2.64499709       -0.00794455        4.12164292
 C            2.67238394       -1.38449409        3.68765839
 C            2.52452822        1.03217478        3.11520101
 C            0.70618939        1.22761074        4.56927810
 C            1.42825885        1.89773324        3.50678731
 C           -0.58540987       -0.72661253        4.52376272
 C           -0.60875347        0.70207930        4.25563888
 C           -1.24272107       -1.57957168        3.65002948
 C            0.85702608       -2.78333106        3.17109029
 C           -0.51585082       -2.67303199        3.00998730
 C            2.68587520       -1.65340753        2.26613212
 C            1.70428866       -2.68526256        1.99629714
 C            2.66274853        0.72334746        1.75851713
 C            2.80289287       -0.61121592        1.35024002
 C            2.21446898        1.66990675        0.82447113
 C            0.68923513        2.47494714        2.48752652
 C            1.31755538        2.65134685        1.25982441
 C           -1.23458178        1.18212864        3.10545408
 C           -0.69915971        2.31665131        2.49898208
 C           -2.13526182       -1.01149962        2.65612381
 C           -2.06241466        0.34197003        2.34981337
 C           -1.07491435       -2.84586362        1.68223072
 C           -2.21978539       -1.96337127        1.57221908
 C            1.13332284       -2.71484302        0.72594864
 C           -0.23231174       -2.96979484        0.57597400
 C            2.56121115       -0.91472313        0.01815414
 C            1.79321317       -2.04053629       -0.29717739
 C            2.34110834        1.39468302       -0.54509009
 C            2.68940784        0.09310991       -0.92271014
 C            1.82639036        2.29806138       -1.49071202
 C            0.69239527        3.47539402        0.33807993
 C            0.92781124        3.27297106       -1.07458052
 C           -1.43692369        2.93044368        1.49622302
 C           -0.72399790        3.73138851        0.51866796
 C           -2.52697974        0.77618855        1.10272704
 C           -2.40999091        2.12574862        0.77819199
 C           -2.54745259       -1.51581243        0.30610209
 C           -2.78407573       -0.15572413        0.08576288
 C           -0.80071743       -2.79709040       -0.69051324
 C           -2.09785876       -2.27697585       -0.76064401
 C            1.34526341       -2.20935128       -1.60466785
 C            0.04314313       -2.67259271       -1.80013704
 C            2.69087645       -0.28053435       -2.25821493
 C            1.99412081       -1.50306275       -2.61591056
 C            1.78455458        1.94504068       -2.83727051
 C            2.40195999        0.71175738       -3.26385393
 C            0.51690917        2.07359896       -3.54022549
 C           -0.35068294        3.37626012       -1.76395455
 C           -1.37939057        3.55984479       -0.76356249
 C           -2.37905411        2.52434161       -0.61976143
 C           -0.59189785        2.50718020       -2.82042023
 C           -2.93531283        0.28254530       -1.23696806
 C           -2.45527957        1.54297870       -1.59682073
 C           -1.74009282        1.70610662       -2.79355406
 C           -2.66166530       -2.01958418       -1.99796512
 C           -3.14270849       -0.66985248       -2.23418798
 C           -0.52117438       -2.64997198       -3.07503922
 C           -1.95349980       -2.45579072       -3.18149114
 C            1.34363689       -1.29219660       -3.89754171
 C            1.54945243        0.09948197       -4.26971498
 C            0.39364690        0.96103760       -4.46611180
 C            0.10618025       -1.87217623       -4.13206391
 C           -1.97133578        0.82264558       -3.84418973
 C           -2.82636156       -0.32400374       -3.60681820
 C           -2.20985450       -1.48413598       -4.22843341
 C           -0.85109454        0.37878180       -4.66144124
 C           -0.92840511       -1.06863881       -4.76421901
