   70
C70 / DATE: 7/ 1/2024 / Origin: Program Fullerene / C70 from database
 C            1.54640875        0.00747687        4.67531748
 C            0.75122193       -1.19497527        4.53278157
 C            1.39254819       -2.04745033        3.54893953
 C            2.63735846       -0.06896267        3.71873363
 C            2.51485306       -1.30620111        2.98809990
 C            2.63308006        1.15362691        2.96231284
 C            0.70678839        1.13181384        4.29437210
 C            1.43468837        1.89806636        3.32000690
 C           -0.61476615       -0.78682077        4.29052986
 C           -0.58602382        0.61804914        3.90987452
 C           -1.41472478       -1.63850215        3.55637005
 C            0.59421753       -2.79871570        2.68848497
 C           -0.79665943       -2.74223499        2.82539985
 C            1.14393511       -3.19537353        1.47249860
 C            2.69110556       -1.30552670        1.60559386
 C            2.26147945       -2.43702885        0.92784504
 C            2.97299717        1.11898621        1.61572594
 C            2.83978960       -0.09053630        0.90677049
 C            2.74482458        2.30566755        0.93879226
 C            0.74228674        2.50479192        2.28215657
 C            1.55295311        3.05422680        1.30494845
 C           -1.13984780        1.00748789        2.68465055
 C           -0.50764049        1.98350093        1.89505003
 C           -2.38527192       -1.05234329        2.66085032
 C           -2.14777371        0.21804338        2.13180056
 C           -1.65522630       -3.02119944        1.67895471
 C           -2.79201634       -2.11912114        1.77319455
 C            0.27687608       -3.55650903        0.36343734
 C           -1.08479778       -3.27565868        0.43367344
 C            2.12125385       -2.40902153       -0.51002450
 C            1.01007629       -3.27908578       -0.85767872
 C            2.68641659       -0.06133120       -0.49673723
 C            2.28432356       -1.21169880       -1.19217022
 C            2.84982274        2.33892354       -0.49781142
 C            2.85917701        1.14084367       -1.19684511
 C            0.96073654        3.54602490        0.09031169
 C            1.97595438        3.41234458       -0.94004146
 C           -1.01303891        2.27029190        0.61208519
 C           -0.34970607        3.20052421       -0.20284563
 C           -2.70046442        0.54514769        0.89414605
 C           -2.10859975        1.54570202        0.10773758
 C           -3.45987297       -1.77042240        0.61862439
 C           -3.60155184       -0.35761187        0.32279423
 C           -1.79662351       -2.96267468       -0.73034177
 C           -3.07013093       -2.40573098       -0.62427198
 C            0.30431400       -3.02502504       -2.01977774
 C           -1.14556075       -2.95307898       -1.96542100
 C            1.78618791       -1.11368226       -2.49396326
 C            0.76298021       -1.96664278       -2.90173769
 C            2.61478628        1.18397499       -2.56662300
 C            1.96653805        0.06047033       -3.20786947
 C            1.58144929        3.44671410       -2.26668540
 C            2.06073473        2.39868374       -3.15089695
 C           -0.80200699        3.44188180       -1.49249718
 C            0.17340207        3.65787397       -2.55478413
 C           -2.55702960        1.76013671       -1.20871514
 C           -1.85764969        2.62400143       -2.03653205
 C           -3.91000684       -0.27074638       -1.08467165
 C           -3.57052334       -1.55247947       -1.68772241
 C           -3.27089105        0.76060376       -1.85720204
 C           -1.57953706       -2.03950179       -3.01588099
 C           -0.39972771       -1.39672896       -3.56325682
 C           -2.73098568       -1.29416907       -2.84319496
 C           -2.67423588        0.14352420       -3.03065051
 C            0.85048586        0.57536485       -3.98764838
 C            0.96743702        2.01804289       -4.03099301
 C           -0.18707264        2.80707200       -3.67698486
 C           -1.40451401        2.11242381       -3.32121825
 C           -0.39936198       -0.03184462       -3.84826092
 C           -1.53964837        0.74632766       -3.57090918
