   70
C70 / DATE: 7/ 1/2024 / Origin: Program Fullerene / C70 from database
 C            1.50426666        0.04405449        4.81679785
 C            0.72886514       -1.18099324        4.71426122
 C            1.56551498       -2.17263729        4.08483534
 C            2.67926975       -0.11197818        3.97771149
 C            2.78695841       -1.51014903        3.63970041
 C            2.58334648        0.85035447        2.89902505
 C            0.70359752        1.11863553        4.25692889
 C            1.43396205        1.70089135        3.15473966
 C           -0.53675698       -0.85080585        4.09147138
 C           -0.61062706        0.59315120        3.97404171
 C           -1.02815266       -1.61553101        3.03129794
 C            1.04042241       -2.90314227        2.94746633
 C           -0.23043494       -2.61567114        2.44196859
 C            2.98254975       -1.87282451        2.24932909
 C            2.14163412       -3.02904554        2.01570192
 C            2.82594551        0.45955464        1.58313364
 C            3.04900831       -0.88647961        1.25998110
 C            2.40460635        1.31820727        0.57559923
 C            0.71328607        2.15588291        2.05627996
 C            1.36586238        2.21642464        0.83744883
 C           -1.29678342        1.09805955        2.88106888
 C           -0.67800403        2.03884713        2.04452736
 C           -2.09561418       -1.08139872        2.30498889
 C           -2.29836557        0.30345100        2.34216442
 C           -2.63889425       -1.83469450        1.27187432
 C           -0.55472768       -3.10138642        1.16822622
 C           -1.79796080       -2.81256958        0.61708523
 C            1.85378179       -3.36035290        0.70664630
 C            0.46295466       -3.53644431        0.31866416
 C            2.92117640       -1.28891231       -0.07564256
 C            2.47806737       -2.58574056       -0.34839734
 C            2.72230951        1.01471024       -0.74222190
 C            2.87803881       -0.32812623       -1.09302638
 C            2.44206940        1.97224912       -1.71445867
 C            0.72582458        2.83530524       -0.22541996
 C            1.45487152        2.98645365       -1.39611994
 C           -1.38245452        2.48056356        0.91431705
 C           -0.67754618        2.85024330       -0.24976301
 C           -3.17443686        0.91137735        1.45621509
 C           -2.73344374        2.14338376        0.83119535
 C           -3.44942995       -1.19338704        0.25255905
 C           -3.84714296        0.11910880        0.44315464
 C           -1.90637163       -2.59719127       -0.82027185
 C           -2.93086218       -1.59901897       -1.04754052
 C            0.37457712       -3.24293323       -1.10576544
 C            1.70012957       -2.83616523       -1.54544074
 C           -0.75354465       -2.58520830       -1.59414628
 C            2.59322805       -0.74365579       -2.39632255
 C            1.81048325       -1.94872507       -2.59643989
 C            2.22691220        1.56988405       -3.09170102
 C            2.14117170        0.21809174       -3.38652200
 C            0.78023253        3.35861583       -2.61425580
 C            1.27027255        2.49294636       -3.67704588
 C           -1.36914866        3.09738575       -1.45430327
 C           -0.66343838        3.32347616       -2.63504987
 C           -3.43136878        2.26050770       -0.42643355
 C           -4.03239227        0.96710076       -0.71903656
 C           -2.68416758        2.66301883       -1.59358411
 C           -2.75358193       -0.64828411       -2.04825352
 C           -3.49949657        0.52788761       -1.99559765
 C           -2.99821181        1.71709075       -2.65341834
 C           -0.62422364       -1.66196544       -2.63803041
 C            0.60399604       -1.54533827       -3.28863331
 C            0.92970397       -0.32417513       -3.99813906
 C           -1.63315687       -0.71814719       -2.88342407
 C            0.11992249        1.95774017       -4.37880531
 C           -1.06332980        2.58856217       -3.82424789
 C           -2.08720708        1.56914116       -3.68454871
 C           -0.10205665        0.52265727       -4.37257108
 C           -1.43548512        0.27806276       -3.84582818
