   70
C70 / DATE: 7/ 1/2024 / Origin: Program Fullerene / C70 from database
 C            1.25782470       -0.01244452        4.46523054
 C            2.52422746       -0.22377788        3.80160731
 C            2.50892085       -1.56984055        3.25411476
 C            0.41108676       -1.16668903        4.18849623
 C            1.13452111       -2.02709118        3.28226234
 C           -0.88484444       -0.66190123        3.78136365
 C            0.48227682        1.16197711        4.12141257
 C           -0.90456230        0.73761104        4.15948933
 C            0.89983660        1.99808205        3.08157575
 C            2.89071233        0.66470815        2.71873128
 C            1.96645797        1.60662328        2.26069060
 C            3.18604631       -1.52370515        1.96748202
 C            3.61134415       -0.14947836        1.75685324
 C            2.63603224       -2.22040649        0.89271292
 C            0.55333125       -2.39242041        2.07764398
 C            1.39125661       -2.83917208        1.06470951
 C           -1.40777843       -1.02756438        2.54134470
 C           -0.73996486       -1.96462251        1.74542197
 C           -2.40527357       -0.23136479        1.97611300
 C           -1.85072250        1.55875326        3.57619824
 C           -2.74597123        0.97969625        2.59022438
 C           -0.01374908        2.93442031        2.60100818
 C           -1.39764290        2.82585113        3.03020030
 C           -0.01936830        3.25700332        1.18314137
 C            1.97873674        1.97659303        0.91101456
 C            0.86997234        2.60332786        0.35023005
 C            3.72415380        0.31042616        0.45639999
 C            2.97101790        1.49067752        0.06955480
 C            3.07348006       -1.90167247       -0.39680105
 C            3.61308187       -0.64218327       -0.63556989
 C            2.59279343       -2.63022209       -1.47827818
 C            0.81065295       -3.51330173        0.00512150
 C            1.53585301       -3.59229792       -1.24412893
 C           -1.25343227       -2.28413561        0.48413717
 C           -0.58131938       -3.22587679       -0.29522155
 C           -2.86461655       -0.49638022        0.68305453
 C           -2.19581509       -1.43931617       -0.11165792
 C           -3.75914641        0.40239045        0.10599380
 C           -3.22928563        2.08109824        1.77688785
 C           -2.24733794        3.14380736        1.89807275
 C           -1.39468739        3.42437088        0.75416680
 C           -3.70233545        1.79219198        0.51191597
 C           -1.78768934        2.93944291       -0.49023848
 C           -3.10106658        2.48690962       -0.61103241
 C            0.52005366        2.34743412       -0.97843038
 C           -0.81618928        2.48178591       -1.39405363
 C            2.69924605        1.39169895       -1.35253571
 C            3.18665484        0.09847319       -1.80941575
 C            1.49606792        1.87190870       -1.86102196
 C            2.29873953       -1.94112026       -2.72913897
 C            2.49359770       -0.55791917       -2.82207768
 C            0.57406434       -3.48159366       -2.32294614
 C           -0.72367608       -3.19075124       -1.73796655
 C            1.11130017       -2.56357917       -3.30840378
 C           -2.39152230       -1.48060696       -1.50509153
 C           -1.50604229       -2.19857054       -2.30909459
 C           -3.92282876        0.42524617       -1.32938162
 C           -3.49155642        1.74263694       -1.78533139
 C           -3.21678254       -0.55040021       -2.12645409
 C           -1.21335122        2.00062444       -2.65036208
 C           -2.51303156        1.52972991       -2.82527281
 C           -2.70380955        0.16425731       -3.27799739
 C            1.13021211        1.45899758       -3.13433449
 C            1.66741434        0.20439427       -3.64541343
 C           -0.25175041        1.56482543       -3.55439135
 C            0.21857500       -1.78459558       -4.02700078
 C           -1.16298798       -1.70426786       -3.57240612
 C           -1.69087064       -0.42322844       -4.01596495
 C            0.62385877       -0.44834144       -4.40982996
 C           -0.55239303        0.40286454       -4.37733243
