   70
C70 / DATE: 7/ 1/2024 / Origin: Program Fullerene / C70 from database
 C            1.32323228       -0.02708465        4.98685918
 C            0.55473227       -1.20674526        4.62476831
 C            1.45085535       -2.12619199        3.96650114
 C            2.61195038       -0.12078788        4.32277329
 C            2.73195193       -1.45512431        3.78913491
 C            2.72105442        0.99560042        3.40533605
 C            0.63152048        1.13142328        4.44875499
 C            1.53038784        1.82162379        3.55530727
 C           -0.62562964       -0.76481602        3.90765847
 C           -0.62773314        0.68519843        3.90877343
 C           -1.02371124       -1.41213060        2.73479330
 C            1.06001353       -2.66258176        2.67801006
 C           -0.18443705       -2.36216033        2.13578064
 C            3.10883545       -1.60498283        2.39832518
 C            2.21425618       -2.58651932        1.80812933
 C            3.23816948        0.80716642        2.12214976
 C            3.47041679       -0.49363258        1.63579850
 C            3.06048713        1.85992233        1.22605458
 C            1.00924713        2.43130441        2.41685691
 C            1.91017086        2.73085317        1.40674050
 C           -1.12230613        1.30712220        2.77554508
 C           -0.34274201        2.24848591        2.08334879
 C           -1.96658460       -0.76002906        1.92915236
 C           -2.09957681        0.62421727        2.06995036
 C           -2.39536406       -1.37832940        0.74853494
 C           -0.38157290       -2.65363056        0.79344628
 C           -1.64080120       -2.44553832        0.25534959
 C            2.00940794       -2.54737516        0.43228382
 C            0.71901364       -2.73186494       -0.06963930
 C            3.61656172       -0.70741497        0.26595525
 C            2.92155645       -1.83619670       -0.33597458
 C            3.25324138        1.66286896       -0.19832051
 C            3.55207273        0.40194905       -0.66869813
 C            1.41970507        3.10357944        0.09923135
 C            2.26674020        2.46667033       -0.89786808
 C           -0.83720576        2.75430111        0.86792375
 C            0.05248269        3.17343931       -0.13214186
 C           -2.81821249        1.34374988        1.13725884
 C           -2.17349495        2.49916534        0.54380897
 C           -3.31600813       -0.72156427       -0.07965057
 C           -3.53376643        0.64089538        0.09575109
 C           -3.73192622       -1.31311249       -1.27035633
 C           -1.88090911       -2.94405552       -1.01514984
 C           -3.04763144       -2.49693542       -1.74161295
 C            0.50493473       -2.67684322       -1.45191862
 C           -0.76235019       -3.00325260       -1.93693690
 C            2.57224362       -1.47324436       -1.69531296
 C            2.91265222       -0.07142081       -1.88314811
 C            1.39264627       -1.95070691       -2.25556465
 C            1.68078190        2.00586550       -2.07594438
 C            2.02596823        0.74492673       -2.58504045
 C           -0.35834139        3.22015379       -1.46315651
 C            0.49571987        2.62129598       -2.47719554
 C           -2.63602757        2.59924275       -0.83073035
 C           -3.58161043        1.51720480       -1.06316400
 C           -1.73772461        2.95362419       -1.82248622
 C           -3.98174147       -0.46718666       -2.42667651
 C           -3.69385648        0.95343379       -2.32758411
 C           -2.65298032       -2.27033539       -3.12255878
 C           -1.21593185       -2.46511310       -3.20843342
 C           -3.22191536       -1.00397403       -3.54394920
 C            0.91805619       -1.28787053       -3.38449142
 C            1.21268281        0.12841064       -3.53566031
 C           -0.43160714       -1.52422667       -3.85919795
 C           -0.35688594        2.00495296       -3.47632419
 C           -1.74095427        2.24482019       -3.09410370
 C           -2.70969858        1.27921600       -3.34948080
 C           -2.33835691        0.04414285       -4.02273355
 C            0.01142356        0.78473155       -4.01862541
 C           -0.99557688       -0.23857952       -4.25621609
