   70
C70 / DATE: 7/ 1/2024 / Origin: Program Fullerene / C70 from database
 C            1.59169753        0.03769635        4.58828447
 C            0.79454165       -1.17002830        4.48532992
 C            1.41838774       -2.03969303        3.50545367
 C            2.64650619       -0.04276636        3.59366864
 C            2.54618673       -1.32053009        2.92769325
 C            2.57610541        1.14602329        2.78126069
 C            0.73930975        1.15890593        4.23237174
 C            1.39967534        1.89867174        3.17486483
 C           -0.58236050       -0.77686950        4.27443795
 C           -0.59139480        0.64718731        3.97471215
 C           -1.38758472       -1.61393146        3.52232097
 C            0.61098462       -2.80097774        2.66205622
 C           -0.77999354       -2.71551386        2.78149912
 C            1.16485070       -3.25473095        1.46831016
 C            2.74224673       -1.38711889        1.55059435
 C            2.30019182       -2.53676913        0.90724510
 C            2.83450822        1.04922626        1.42423097
 C            2.91895676       -0.20858472        0.80501785
 C            2.46129750        2.13173233        0.64506261
 C            0.62437884        2.45243270        2.15909408
 C            1.25904544        2.78004773        0.95697709
 C           -1.26398428        1.10492203        2.84373130
 C           -0.75065101        2.20158659        2.14650488
 C           -2.38615998       -1.02194509        2.65445711
 C           -2.24668690        0.30447731        2.25025610
 C           -1.62890906       -2.97437116        1.62394681
 C           -2.73205257       -2.02874136        1.67209086
 C            0.30032615       -3.63475205        0.36404786
 C           -1.04862952       -3.29367604        0.39923359
 C            2.16130388       -2.54681612       -0.53565464
 C            1.06068017       -3.43882104       -0.85729071
 C            2.90740334       -0.26790553       -0.59913075
 C            2.31043854       -1.35640588       -1.23712733
 C            2.95351685        2.16974161       -0.64570396
 C            3.12374277        0.90170621       -1.32678657
 C            2.40169514        3.12150037       -1.58169646
 C            0.52610504        3.42854427       -0.04293684
 C            1.12865295        3.73068960       -1.26205257
 C           -1.52220783        2.77219629        1.14584997
 C           -0.86354910        3.46285574        0.05057812
 C           -2.88539806        0.73428116        1.08276377
 C           -2.62565814        2.00905688        0.59085986
 C           -3.31804963       -1.62206238        0.48772029
 C           -3.48222851       -0.19903999        0.23478311
 C           -1.71823764       -2.99090952       -0.79106374
 C           -2.89257827       -2.23711572       -0.75558907
 C            0.37817558       -3.25026528       -2.04441870
 C           -1.07203155       -3.18702620       -2.01053613
 C            1.62840024       -1.17750103       -2.44712361
 C            0.82690836       -2.20225648       -2.94194340
 C            2.52051145        1.03515669       -2.64123457
 C            2.26737583        2.44819110       -2.86178270
 C            1.58436803        0.08609402       -3.04501768
 C            0.32598882        3.70482428       -2.47253533
 C            1.00000535        2.84370493       -3.43147832
 C           -1.67313653        3.26819232       -1.14346929
 C           -2.64473494        2.23366458       -0.84733340
 C           -1.06136316        3.28095580       -2.38443490
 C           -3.42068436        0.00369222       -1.20610992
 C           -3.18123741       -1.28934632       -1.82195190
 C           -2.79793773        1.14584445       -1.70504845
 C           -1.49205404       -2.42160387       -3.17259558
 C           -0.29791951       -1.85448630       -3.77945360
 C           -2.46035148       -1.35333488       -3.00112432
 C            0.46145153        0.47251846       -3.80024921
 C            0.06876544        1.80652397       -3.81480329
 C           -1.23580206        2.14035747       -3.26811750
 C           -2.08911854        1.09258053       -2.91438257
 C           -0.54836331       -0.45307696       -4.03111416
 C           -1.88363776       -0.13680928       -3.54601830
