   70
C70 / DATE: 7/ 1/2024 / Origin: Program Fullerene / C70 from database
 C            1.39653659       -0.16681090        4.70746336
 C            2.66333636       -0.35989753        4.02795284
 C            2.63014686       -1.66216825        3.38678861
 C            0.55049269       -1.30767539        4.41029612
 C            1.35394019       -2.28448575        3.69521930
 C           -0.67131319       -0.81584884        3.78676199
 C            0.63837859        1.03144364        4.41360050
 C           -0.64172348        0.62744063        3.83796087
 C            1.30252882        2.11459587        3.85586444
 C            3.07637867        0.61800731        3.03455245
 C            2.49546551        1.87733407        3.04425388
 C            3.00235829       -1.48840058        1.99075883
 C            3.22078378       -0.07088588        1.76315056
 C            2.33123767       -2.22591060        1.01960165
 C            0.73684052       -3.02442110        2.70088744
 C            1.41934602       -3.19052019        1.42883968
 C           -1.13716739       -1.44923915        2.64265457
 C           -0.64261522       -2.71597888        2.36691510
 C           -1.70913817       -0.69835961        1.60495966
 C           -1.17831718        1.36377892        2.78551877
 C           -1.71283798        0.70541097        1.66676728
 C            0.50411381        3.09885838        3.15968964
 C           -0.80311389        2.69590214        2.67283279
 C            2.30072837        2.56235480        1.77818454
 C            1.26897199        3.54139860        2.00754003
 C            2.71719955        0.50283804        0.59796070
 C            2.27354536        1.82837411        0.58970928
 C            2.19410368       -1.69389070       -0.26152938
 C            2.39535902       -0.32433574       -0.46750525
 C            1.55308408       -2.44854370       -1.24933398
 C            0.40747774       -3.62860423        0.48859728
 C           -0.88367191       -3.28829941        1.06836567
 C            0.58120473       -3.38253381       -0.86957371
 C           -2.14730330       -1.35041507        0.44073708
 C           -1.81859767       -2.70311393        0.23411998
 C           -2.73037935       -0.60345974       -0.59384117
 C           -2.16601368        1.45499908        0.56707836
 C           -2.71930056        0.79329296       -0.54208785
 C           -0.98706987        3.36693636        1.41337129
 C            0.32835995        3.77191094        0.94397839
 C           -1.83720475        2.82010810        0.46765439
 C            1.54579719        2.31172808       -0.51736340
 C            0.66873862        3.39896779       -0.34830795
 C            2.04245834        0.24817442       -1.67971153
 C            1.47193929        1.52847471       -1.68584353
 C            1.58940507       -1.97991431       -2.56159315
 C            1.93402464       -0.58682906       -2.78425196
 C            0.52112861       -2.32295898       -3.48717249
 C           -0.55630195       -3.53360238       -1.65990608
 C           -1.83804106       -3.21226137       -1.05472408
 C           -0.57071442       -3.03917300       -3.02182805
 C           -3.11543656       -1.23378841       -1.78211872
 C           -2.66218749       -2.57773068       -2.04713360
 C           -1.91793956       -2.56149099       -3.29762137
 C           -3.02165076       -0.51315326       -3.03832482
 C           -2.10764415       -1.25291378       -3.89856194
 C           -3.03660421        1.51503543       -1.69878584
 C           -2.95550547        0.86691334       -2.99501053
 C           -1.70207515        3.37200586       -0.79666400
 C           -0.34572554        3.58211363       -1.27399711
 C           -2.47716428        2.83041918       -1.87808483
 C            0.66988757        1.94239192       -2.76393286
 C           -1.93122591        1.56216933       -3.76505985
 C           -0.24849773        2.96348406       -2.57125486
 C           -1.61031717        2.77772108       -3.04310857
 C            1.22249891       -0.12930727       -3.95377474
 C            0.30711583       -1.18276534       -4.36314255
 C           -1.02179046       -0.60161289       -4.47484633
 C            0.47391595        1.10173880       -3.85831091
 C           -0.88423942        0.83497819       -4.31628032
