   70
C70 / DATE: 7/ 1/2024 / Origin: Program Fullerene / C70 from database
 C            1.48376242       -0.14635828        4.27469221
 C            2.64901519       -0.32954709        3.42386840
 C            2.44024478       -1.54803357        2.65911571
 C            0.64601066       -1.32195384        4.13953762
 C            1.33157808       -2.26093484        3.27166813
 C           -0.68662383       -0.88252967        3.76385037
 C            0.64419974        1.02374068        4.07479079
 C           -0.64507854        0.55791645        3.58988310
 C            1.21033076        2.14964483        3.50022739
 C            3.18417932        0.78104508        2.79071974
 C            2.59654134        2.08183358        3.06386711
 C            3.45554160        0.71703128        1.36401592
 C            2.55123683       -1.52707366        1.26851435
 C            3.02640967       -0.37804294        0.62290130
 C            1.96010168       -2.55370311        0.52374932
 C            0.55645185       -3.08832955        2.47561404
 C            0.97413647       -3.34583225        1.10842398
 C           -1.39657494       -1.63681865        2.84072831
 C           -0.88008523       -2.86939981        2.43696174
 C           -2.31336601       -0.99320980        2.01434353
 C           -1.20088826        1.11226640        2.43698946
 C           -2.11636419        0.35984045        1.69691165
 C            0.47041110        2.86363921        2.47444195
 C           -0.65248534        2.27478884        1.88644915
 C            2.72326059        2.88675787        1.86420771
 C            3.26814156        2.04650745        0.81114786
 C            1.44734529        3.53544242        1.63227011
 C            2.74529006        2.17313316       -0.47273700
 C            2.84992273       -0.22944241       -0.75096394
 C            2.68977468        1.04863920       -1.30072074
 C            2.04770431       -2.53195779       -0.86387169
 C            2.59540144       -1.35998320       -1.51678174
 C            0.90794637       -2.98200673       -1.64957535
 C           -0.21994513       -3.67306601        0.34016175
 C           -1.36920058       -3.47940386        1.21066335
 C           -0.28532995       -3.29224358       -0.99943571
 C           -3.11646934       -1.78812962        1.20504178
 C           -2.55144911       -3.01120114        0.66435755
 C           -3.90769725       -1.17423991        0.16228747
 C           -2.67592169        0.90862330        0.53837013
 C           -3.65365708        0.20946857       -0.16704690
 C           -1.06935633        2.71006831        0.62591387
 C           -2.09949346        2.04116577       -0.03721774
 C            1.09892150        3.81659729        0.32369578
 C            1.91504746        3.26249220       -0.74544160
 C           -0.27601240        3.61422311       -0.08160646
 C            1.09256684        3.26283960       -1.94562234
 C           -0.26977020        3.57445659       -1.53286120
 C            2.21276294        1.19317013       -2.60333984
 C            1.31500648        2.29223490       -2.91205300
 C            1.95609869       -1.23269323       -2.81420799
 C            0.89423927       -2.22476428       -2.88810449
 C            1.76385641        0.03108168       -3.35051808
 C           -0.32095374       -1.89936760       -3.47075948
 C           -1.51224504       -2.91372815       -1.56063414
 C           -2.66608443       -2.92275358       -0.77776210
 C           -3.71632080       -1.95679085       -1.04984946
 C           -1.55259032       -2.30174073       -2.81478319
 C           -3.69654280        0.31527936       -1.61429408
 C           -3.54755492       -1.02880030       -2.15261489
 C           -2.55750233       -1.28402207       -3.09319903
 C           -2.36739369        2.34766146       -1.37322206
 C           -1.34009075        2.97860169       -2.17974998
 C           -3.03508821        1.37357421       -2.21743535
 C            0.19395503        1.75372497       -3.66665350
 C            0.49809601        0.36717017       -3.98479686
 C           -0.52439848       -0.57424972       -4.03645317
 C           -1.89547456       -0.17410368       -3.75945974
 C           -1.10532223        2.12090347       -3.33138558
 C           -2.17215797        1.13089186       -3.36522422
