   70
C70 / DATE: 7/ 1/2024 / Origin: Program Fullerene / C70 from database
 C            1.47565476        0.02840630        4.78776440
 C            0.69236017       -1.17547457        4.57489177
 C            1.56912936       -2.15748310        3.98675897
 C            2.69422346       -0.10093997        4.00509855
 C            2.80935071       -1.48294152        3.61500739
 C            2.66071671        0.90899684        2.96650586
 C            0.72236842        1.14281554        4.24287192
 C            1.55321803        1.79937851        3.26265375
 C           -0.50639261       -0.80147039        3.85131638
 C           -0.55959573        0.64918738        3.79417316
 C           -0.89952893       -1.51763805        2.72076815
 C            1.11569756       -2.87550218        2.81194654
 C           -0.11743240       -2.57214382        2.22561490
 C            3.05260526       -1.79186889        2.22009415
 C            2.27566006       -2.98416633        1.95272476
 C            2.89285619        0.56724230        1.62846110
 C            3.06755913       -0.77641747        1.25650692
 C            2.52536238        1.50199500        0.65492739
 C            0.93239762        2.39944799        2.18235791
 C            1.69480504        2.56150066        1.04092428
 C           -1.12138682        1.22974029        2.66305152
 C           -0.45381344        2.27674428        2.02359202
 C           -1.83093037       -0.92388910        1.87547289
 C           -1.99681961        0.46467588        1.90915669
 C           -2.31415953       -1.64528944        0.78993984
 C           -0.35449962       -3.04021585        0.92671424
 C           -1.51057306       -2.64711059        0.24285461
 C            2.06607693       -3.33237434        0.63572292
 C            0.70649969       -3.60314000        0.21097317
 C            2.91666027       -1.14626569       -0.08499793
 C            2.63222457       -2.48022310       -0.39081627
 C            2.64897529        1.17219957       -0.69742699
 C            2.75796292       -0.16751383       -1.06853649
 C            2.36046913        2.13242564       -1.66753153
 C            1.20657378        3.44088955        0.09325054
 C            1.69948889        3.35442139       -1.26160678
 C           -1.03357884        2.83178861        0.87372307
 C           -0.23190552        3.62557617        0.04386882
 C           -2.71594050        1.08802689        0.89851881
 C           -2.22309246        2.28907112        0.36574947
 C           -3.36792931       -1.10487429        0.05481393
 C           -3.63464663        0.31447791        0.19409393
 C           -3.52404237       -1.44555407       -1.35035177
 C           -1.65555251       -2.99330644       -1.10180196
 C           -2.56462063       -2.24438511       -1.94679537
 C            0.71755066       -3.52576504       -1.23894351
 C            1.92594019       -2.80456850       -1.61812508
 C           -0.47378920       -3.27115501       -1.89677406
 C            2.45176525       -0.54878636       -2.37738161
 C            1.87759190       -1.85701647       -2.62706802
 C            1.76650524        1.72234163       -2.92892719
 C            1.77695673        0.38294622       -3.26172537
 C            0.57755705        3.58024116       -2.15709616
 C           -0.60008595        3.84280459       -1.34694090
 C            0.53847639        2.47836316       -3.10200596
 C           -2.73703801        2.79931493       -0.82860958
 C           -1.82146217        3.36942832       -1.79479088
 C           -4.18592849        0.78697991       -1.05706367
 C           -3.94719005       -0.24501851       -2.05060711
 C           -3.70034597        2.03470046       -1.59723510
 C           -0.67098930        1.81277718       -3.30201227
 C           -1.84124409        2.47798501       -2.94409539
 C           -3.06250746        0.31614304       -3.05682075
 C           -3.08951527        1.75129730       -2.88984314
 C           -1.77636179       -1.69215240       -3.03950287
 C           -0.49290681       -2.37056485       -3.04006262
 C            0.64776795       -1.66026094       -3.38118180
 C            0.53596902       -0.24325681       -3.68358909
 C           -1.85360374       -0.32593099       -3.31279142
 C           -0.67556749        0.42033330       -3.47980605
