   70
C70 / DATE: 7/ 1/2024 / Origin: Program Fullerene / C70 from database
 C            1.46488664        0.29584768        5.03201402
 C            0.66244462       -0.90217700        4.86789920
 C            1.50476299       -1.89773635        4.24705307
 C            2.64391375        0.15057198        4.19243534
 C            2.70475834       -1.22745182        3.76512510
 C            2.59247325        1.18907804        3.18009899
 C            0.69890874        1.41280963        4.51334061
 C            1.54074815        2.11469921        3.56711121
 C           -0.57231635       -0.53229236        4.19602817
 C           -0.58061702        0.91258889        4.04034310
 C           -1.04725324       -1.31560542        3.14619136
 C            0.95827175       -2.64779652        3.13636652
 C           -0.38181038       -2.49986348        2.79658352
 C            2.81543676       -1.50913187        2.34733603
 C            1.93201371       -2.61918141        2.05967981
 C            2.73897075        0.86432943        1.82744866
 C            2.87862876       -0.47182400        1.42562925
 C            2.37842799        1.82255282        0.87254303
 C            0.91051843        2.82734691        2.56315970
 C            1.52465146        2.85669117        1.25126940
 C           -1.11079639        1.45957312        2.87324545
 C           -0.51022332        2.59751957        2.33643965
 C           -1.91770480       -0.72752451        2.22720036
 C           -1.88905292        0.65915435        2.03753494
 C           -2.57345887       -1.53563993        1.30052825
 C           -0.78492178       -3.16426303        1.64618023
 C           -2.01653027       -2.77226155        0.99215268
 C            1.46190882       -2.78321526        0.75802123
 C            0.20893946       -3.37039684        0.60156586
 C            2.66561487       -0.78676709        0.09110889
 C            1.92580637       -1.92796243       -0.24606992
 C            2.48780788        1.51902945       -0.48810121
 C            2.82400142        0.21469546       -0.85359746
 C            1.81932778        2.33436653       -1.40822326
 C            0.48844215        3.27308585        0.32972427
 C           -0.78479329        2.96472788        0.95474759
 C            0.64403313        2.96536126       -1.00807628
 C           -2.40561845        1.20388040        0.86120907
 C           -1.72248893        2.23978003        0.22568632
 C           -3.45121393       -0.94900035        0.39430087
 C           -3.34612243        0.47832843        0.14855804
 C           -3.68098398       -1.60275170       -0.88242827
 C           -1.89288056       -3.17678217       -0.39946976
 C           -0.47215767       -3.27895748       -0.67955036
 C           -2.71871762       -2.58752572       -1.34029024
 C            1.38908808       -2.03128647       -1.53274091
 C            0.08552281       -2.50487596       -1.69244270
 C            2.79064707       -0.15210852       -2.19223646
 C            1.97589381       -1.29756637       -2.55622313
 C            2.03378198        2.13840980       -2.76919877
 C            2.59410359        0.87359945       -3.19579435
 C            0.96681210        2.47810110       -3.69875501
 C           -0.49988684        2.79367655       -1.77861484
 C           -1.65070645        2.26640259       -1.17312905
 C           -0.35024975        2.77069883       -3.15945108
 C           -3.48247619        0.70422930       -1.27960470
 C           -3.78226394       -0.57428258       -1.90088107
 C           -2.59941519        1.56280768       -1.92915140
 C           -2.13162159       -2.08052497       -2.56971674
 C           -0.74343232       -1.96324086       -2.68359799
 C           -2.97589389       -0.99194910       -3.03280045
 C            1.17097462       -0.91748742       -3.70167852
 C            1.72475083        0.32360396       -4.22115038
 C            0.82567654        1.37785929       -4.64083852
 C           -0.20960576       -1.10330382       -3.64739516
 C           -1.31492251        2.05837099       -3.96425763
 C           -2.39008559        1.35885384       -3.29275377
 C           -2.39473345       -0.00302115       -3.80697764
 C           -0.58538073        1.07443801       -4.75067998
 C           -1.06261303       -0.23131399       -4.32998281
