   70
C70 / DATE: 7/ 1/2024 / Origin: Program Fullerene / C70 from database
 C            1.28561680       -0.10869684        4.45716526
 C            2.54420451       -0.34224953        3.77613779
 C            2.44730624       -1.62068947        3.09076305
 C            0.43513142       -1.26430359        4.22530447
 C            1.10744046       -2.13502388        3.28363208
 C           -0.88927203       -0.78556942        3.88013865
 C            0.52013122        1.08169664        4.13100091
 C           -0.82904426        0.66608412        3.78340225
 C            1.11738858        2.10236127        3.40648974
 C            3.01775740        0.64161664        2.81836136
 C            2.40931770        1.88599730        2.75958900
 C            2.92114670       -1.43691603        1.73538147
 C            3.31996002       -0.05044313        1.57796076
 C            2.23068547       -2.03454216        0.69033805
 C            0.39252218       -2.57119789        2.17501780
 C            1.04357594       -2.73205451        0.94688430
 C           -1.62421548       -1.47640307        2.92330371
 C           -1.00026395       -2.50251488        2.20355756
 C           -2.69660252       -0.80524359        2.34690668
 C           -1.51909314        1.30158530        2.74710005
 C           -2.60629020        0.63645907        2.18656779
 C            0.30287395        2.86872523        2.48443384
 C           -0.90821259        2.34130853        2.03537458
 C            2.37830090        2.59091736        1.49062085
 C            1.21757631        3.45950400        1.52571005
 C            3.07115075        0.56871052        0.35355461
 C            2.67810845        1.91396862        0.30768699
 C            2.47071123       -1.56511502       -0.59485847
 C            2.88206452       -0.23933779       -0.76763278
 C            1.95916682       -2.28869717       -1.66264364
 C            0.34532870       -3.31042544       -0.11885758
 C            0.85032153       -3.19222247       -1.41613094
 C           -1.71054979       -3.17438545        1.21545709
 C           -0.98214823       -3.69278846        0.06990273
 C           -3.33598887       -1.35120129        1.16553070
 C           -2.95936457       -2.61065498        0.72681800
 C           -3.02329675        0.95637461        0.83400893
 C           -3.47111666       -0.27014882        0.19800290
 C           -1.37019173        2.69158202        0.76093167
 C           -2.28197027        1.86582310        0.09805496
 C            0.70642276        3.91399934        0.32526093
 C           -0.69983309        3.68532634        0.05046593
 C            2.27072868        2.47743278       -0.90786659
 C            1.41701438        3.58189093       -0.89562961
 C            2.80767831        0.36035837       -2.01797778
 C            2.45432374        1.76452897       -2.09240191
 C            1.74360686       -1.64232195       -2.94490016
 C            2.15726832       -0.32956254       -3.11879629
 C           -0.05770516       -3.09929625       -2.55248792
 C            0.44715226       -2.06912174       -3.44677513
 C           -1.89504203       -3.69925628       -1.05949067
 C           -3.05659581       -2.90836667       -0.68892499
 C           -1.42508758       -3.21966676       -2.34599734
 C           -3.16283239       -0.49654270       -1.14170106
 C           -3.15001004       -1.80529084       -1.62688982
 C           -2.31134497       -2.14278148       -2.76417872
 C           -2.24038292        1.74009841       -1.29311591
 C           -2.58376564        0.52613975       -1.89754382
 C           -0.86304757        3.76199813       -1.38874772
 C            0.46855677        3.76751087       -1.97903791
 C           -1.63141527        2.73227087       -2.05602023
 C            1.52179362        1.93080542       -3.20122337
 C            1.28820610        0.62242657       -3.79166968
 C            0.46802263        2.82779238       -3.08375881
 C           -0.89764780        2.35515718       -3.25022229
 C           -0.42962341       -1.13382264       -3.98626727
 C           -1.82005663       -1.11545662       -3.55614650
 C           -2.13603691        0.25160063       -3.18970638
 C           -0.00260029        0.24853420       -4.15173645
 C           -1.12791367        1.10172587       -3.79747975
