   70
C70 / DATE: 7/ 1/2024 / Origin: Program Fullerene / C70 from database
 C            1.23636538       -0.11700900        4.29905137
 C            2.51497885       -0.47981894        3.73903860
 C            2.45941482       -1.88815400        3.36766685
 C            0.42528522       -1.32253846        4.36874058
 C            1.11584509       -2.36400220        3.63450408
 C           -0.92165005       -0.95721867        3.97296778
 C            0.44749571        0.89582138        3.62623912
 C           -0.93313961        0.47893892        3.73049828
 C            0.88421721        1.43642734        2.42175277
 C            2.99422379        0.24281412        2.57848814
 C            2.18116955        1.18985650        1.94910518
 C            2.99921997       -1.99583220        2.02170062
 C            3.67307329       -0.73800293        1.75784965
 C            2.23165299       -2.57441000        1.00963508
 C            0.43385219       -3.05386137        2.64216034
 C            1.04881888       -3.23767118        1.33373596
 C           -1.64527217       -1.78256713        3.11330395
 C           -0.98976634       -2.81612928        2.43726883
 C           -2.80337636       -1.25279910        2.55130304
 C           -1.86015768        0.97556040        2.82422722
 C           -2.98073121        0.18714838        2.59807890
 C           -0.05577925        2.01559755        1.57274234
 C           -1.42979352        1.84563308        1.81182879
 C            0.38394608        2.68087149        0.43278557
 C            2.52303497        1.58999434        0.65334002
 C            1.65443655        2.40684508       -0.07422701
 C            3.93982736       -0.40347692        0.44542359
 C            3.54923181        0.91495477       -0.01360351
 C            2.47182992       -2.20751756       -0.31888879
 C            3.51227565       -1.31905682       -0.59299753
 C            1.49530675       -2.44021366       -1.29328531
 C           -0.01654771       -3.30578224        0.35065996
 C           -1.27466626       -3.04414822        1.02651493
 C            0.19465313       -2.76429634       -0.90527799
 C           -3.19457593       -1.66571646        1.21413915
 C           -2.24684681       -2.27054480        0.40046523
 C           -3.89427346        0.54289361        1.53740323
 C           -4.03909064       -0.62319028        0.67614957
 C           -2.36347139        2.35010818        0.89509928
 C           -3.56004362        1.66357645        0.68694300
 C           -0.52036211        3.42298918       -0.31801615
 C           -1.94123158        3.22821651       -0.09896657
 C           -0.30343267        3.58685957       -1.74756581
 C            1.93584538        2.68143766       -1.41298102
 C            0.86947343        3.10332028       -2.30001182
 C            3.54469558        0.85261224       -1.46497128
 C            3.50270535       -0.55747886       -1.83149574
 C            2.77958035        1.77158110       -2.16461833
 C            1.73176450       -2.04509951       -2.60769340
 C            2.68041520       -0.97665539       -2.86604626
 C            0.60091935       -1.85030432       -3.49514007
 C           -0.89154777       -2.23136530       -1.59817938
 C           -2.00543462       -1.77482541       -0.89009572
 C           -0.73415025       -1.86547532       -2.92739868
 C           -3.82014249       -0.18100122       -0.68363327
 C           -3.91526477        1.26534705       -0.66369367
 C           -2.81764191       -0.77063695       -1.44644598
 C           -2.57861295        3.15193670       -1.40428812
 C           -1.54855469        3.28067820       -2.41794596
 C           -3.37004696        1.97647266       -1.71878162
 C           -1.43425690       -0.69457069       -3.41414044
 C           -2.41392866       -0.11855552       -2.61558355
 C           -1.60633348        2.10667398       -3.27029082
 C           -2.66505821        1.24689690       -2.76291323
 C            0.79973031        2.12861163       -3.38335934
 C            2.03181193        1.34906499       -3.34015455
 C            2.01886190        0.00903012       -3.70666354
 C            0.78209156       -0.57948540       -4.17951776
 C           -0.41993099        1.51948715       -3.70179812
 C           -0.45293693        0.17115415       -4.05014069
