   70
C70 / DATE: 7/ 1/2024 / Origin: Program Fullerene / C70 from database
 C            1.55602996       -0.36347020        5.12517736
 C            0.67799507       -1.50596871        4.97237973
 C            1.20345311       -2.32657181        3.89435966
 C            2.61697571       -0.48771588        4.14054884
 C            2.34076354       -1.64646154        3.31608207
 C            2.74088503        0.79259659        3.47758311
 C            0.79438011        0.82653062        4.78710939
 C            1.60381527        1.61250522        3.88094421
 C           -0.61889875       -1.01251734        4.54085068
 C           -0.51697156        0.41419406        4.32985017
 C            0.09915648       -2.63978576        3.01965188
 C           -1.03284057       -1.82356673        3.42123917
 C            0.33305632       -2.74642197        1.65522788
 C            2.38740997       -1.49016663        1.93303716
 C            1.51360714       -2.22688391        1.11501606
 C            3.10409840        0.81514081        2.13468250
 C            3.05190293       -0.38082374        1.40417203
 C            2.90565896        2.01840324        1.46499141
 C            0.96650474        2.35651456        2.89297095
 C            1.77490632        2.83377181        1.86612529
 C           -0.98624309        0.94250799        3.12981025
 C           -0.38514439        2.09756512        2.62342904
 C           -1.76488745       -1.23372513        2.39947716
 C           -1.79649015        0.15994480        2.28925761
 C           -0.78576563       -2.74559853        0.84367403
 C           -1.87323844       -1.96152912        1.22945652
 C           -0.61190644       -2.99358310       -0.50562458
 C            1.62029423       -2.10976724       -0.28161515
 C            0.54699717       -2.48836069       -1.10771486
 C            3.30968954       -0.35931871        0.03971599
 C            2.64364516       -1.33188302       -0.81111990
 C            3.00687479        2.06890756        0.01960360
 C            3.32664925        0.91171776       -0.66706064
 C            1.17430528        3.39038368        0.66970790
 C            1.93322701        2.91620205       -0.47815942
 C           -1.00996723        2.75553238        1.57208311
 C           -0.20453624        3.45803573        0.58561454
 C           -2.31884931        0.73069023        1.11576050
 C           -2.08565459        2.07836701        0.86656306
 C           -2.70961132       -1.48103623        0.23850608
 C           -2.77580199       -0.09237484        0.07101106
 C           -1.77295032       -3.13399694       -1.25140620
 C           -2.90420660       -2.31828032       -0.85012197
 C           -1.68985407       -3.10582427       -2.68932735
 C            0.52538818       -2.08946700       -2.45972035
 C           -0.53639671       -2.46822263       -3.28347939
 C            2.47521407       -0.72565964       -2.11594936
 C            2.75141319        0.69388566       -1.97765031
 C            1.40949767       -1.10914118       -2.91747159
 C            1.26500087        2.56743751       -1.65290726
 C            1.83427451        1.60135731       -2.49904995
 C           -0.83661179        3.28115243       -0.70481335
 C           -2.08071349        2.55955762       -0.49977538
 C           -0.06881782        2.97365498       -1.82393982
 C           -3.00433819        0.45577969       -1.20759785
 C           -2.53291655        1.73368356       -1.51894646
 C           -3.51721598       -1.78813822       -2.04112283
 C           -2.88486933       -2.43761212       -3.17738243
 C           -3.46284951       -0.35798765       -2.24537745
 C           -1.02763875       -1.53839287       -4.29011374
 C           -2.46110612       -1.39945019       -4.09315195
 C           -2.97626979       -0.13326403       -3.59887176
 C            0.98743088       -0.20854112       -3.89562991
 C            1.16687293        1.21557869       -3.65453654
 C           -0.29144029       -0.39477634       -4.55822509
 C           -0.76135285        2.60600127       -2.97051370
 C           -2.07457622        1.99942549       -2.80941446
 C           -2.24816348        1.01619574       -3.86409802
 C           -0.06432111        1.88216269       -4.00722265
 C           -0.97395764        0.89090148       -4.55655834
