   70
C70 / DATE: 7/ 1/2024 / Origin: Program Fullerene / C70 from database
 C            1.33579653        0.10121495        5.00780165
 C            2.56107632        0.10197118        4.22977908
 C            2.59908338       -1.13170086        3.45812074
 C            0.55283415       -1.05140005        4.59407237
 C            1.31553353       -1.78254306        3.59162895
 C           -0.77969185       -0.58788150        4.24214094
 C            0.47078845        1.26575715        4.96940959
 C           -0.84520981        0.83333546        4.52515876
 C            0.85539522        2.40807951        4.16041431
 C            2.83864494        1.20065702        3.31699884
 C            2.01200796        2.31710856        3.28205992
 C            3.06513885       -0.81084095        2.12552969
 C            3.29228570        0.62008600        2.06796852
 C            2.46333368       -1.41565198        1.02383621
 C            0.65511905       -2.19949853        2.44068461
 C            1.32674807       -2.21212114        1.20868743
 C           -1.34161773       -1.05779679        3.06144759
 C           -0.73376762       -2.14180918        2.44075708
 C           -2.09517256       -0.18786054        2.27061694
 C           -1.28029345        1.72651359        3.46605009
 C           -0.28915303        2.77433466        3.34152365
 C           -1.80304452        1.17445549        2.30218821
 C            1.62819053        2.87283486        1.99661944
 C            0.19644006        3.09889773        2.01391896
 C            3.02646718        1.25595434        0.86396706
 C            2.18086878        2.37227305        0.82434169
 C            2.68755608       -0.84475775       -0.22888651
 C            3.12688054        0.48602543       -0.28886157
 C            2.12762848       -1.44823966       -1.35745256
 C            0.64703114       -2.70204265        0.08712399
 C            1.08369434       -2.36239989       -1.19842525
 C           -1.41233019       -2.74914427        1.40235102
 C           -0.64378913       -3.20229253        0.26224894
 C           -2.71778326       -0.70478194        1.13521059
 C           -2.57357414       -2.06605667        0.87052926
 C           -3.01015284        0.15771366        0.07885538
 C           -1.64292530        1.85118328        1.09251613
 C           -0.53496672        2.68394409        0.90464276
 C           -2.30371535        1.35910336       -0.02755535
 C            1.50345373        2.63428321       -0.36766996
 C            0.10435153        2.68066850       -0.33808381
 C            3.05932487        1.16756633       -1.49267249
 C            2.14673575        2.29068329       -1.54790572
 C            2.41984746       -0.93768522       -2.62211228
 C            2.92117217        0.41370599       -2.71743490
 C            1.47812383       -1.12041149       -3.71347532
 C            0.34018866       -2.76865190       -2.30975582
 C            0.46301064       -2.05354006       -3.56879615
 C           -1.56103300       -3.26941860       -0.86371313
 C           -2.77735236       -2.56405354       -0.47941240
 C           -1.05691062       -3.12783129       -2.14641731
 C           -3.65008131       -0.35845989       -1.04548147
 C           -3.42144065       -1.74892027       -1.39890783
 C           -3.64937043        0.41331628       -2.27456357
 C           -1.93050954        1.82850770       -1.28534404
 C           -0.63504034        2.32080744       -1.46951153
 C           -2.73185272        1.52941133       -2.38055458
 C            1.38323322        2.17638948       -2.77180316
 C            2.02311456        1.15497217       -3.58340635
 C            1.18115357        0.19380082       -4.27149236
 C           -0.00394512        2.20746973       -2.71640325
 C           -2.12929358        1.46816694       -3.69331654
 C           -0.13903242        0.54688323       -4.51934697
 C           -0.70252621        1.68196393       -3.80145960
 C           -0.87995064       -1.74649288       -4.04196089
 C           -1.82571642       -2.40835231       -3.15148128
 C           -3.01860895       -1.78412881       -2.79444699
 C           -3.36642801       -0.49859349       -3.37269860
 C           -1.15970966       -0.48450064       -4.55975156
 C           -2.42626346        0.15982058       -4.25863928
