   70
C70 / DATE: 7/ 1/2024 / Origin: Program Fullerene / C70 from database
 C            1.62792395        0.07630807        4.58711030
 C            0.79309479       -1.10852562        4.64289887
 C            1.33878620       -2.08279188        3.71753461
 C            2.58755457       -0.10385691        3.50921553
 C            2.39591566       -1.42312976        2.95978960
 C            2.47046629        1.02639120        2.61699892
 C            0.77458996        1.19136908        4.22470004
 C            1.41134316        1.87617464        3.12501629
 C           -0.58501629       -0.69473739        4.46459924
 C           -0.56509089        0.68704823        4.00929278
 C           -1.44795343       -1.58174299        3.84613348
 C            0.45934859       -2.92582386        3.04043186
 C           -0.90960578       -2.82505051        3.31192507
 C            0.89059724       -3.47754095        1.83386469
 C            2.43278853       -1.59803997        1.58165646
 C            1.95113567       -2.80552665        1.09834004
 C            2.52104878        0.82348894        1.23650775
 C            2.48129765       -0.48361714        0.72451436
 C            2.08867366        1.87860835        0.42119596
 C            0.61182838        2.47823021        2.17440290
 C            1.23767818        2.83036341        0.99268263
 C           -1.21547933        1.03940481        2.82471392
 C           -0.74118737        2.12597293        2.09084525
 C           -2.36470798       -1.07117405        2.84519494
 C           -2.06012437        0.12279459        2.19746339
 C           -1.88336612       -3.30921693        2.34873228
 C           -2.79711943       -2.20931338        2.06371449
 C           -0.06353000       -3.99733715        0.86481002
 C           -1.42629937       -3.83972008        1.08013166
 C            1.68992982       -2.96248583       -0.31423857
 C            0.48516163       -3.76359337       -0.46131072
 C            2.31994254       -0.65937879       -0.65424665
 C            1.89631502       -1.89144463       -1.17255119
 C            2.11516143        1.72245280       -0.96867034
 C            2.37539150        0.45192767       -1.49601037
 C            1.63289349        2.75505669       -1.79002874
 C            0.53294005        3.69006654        0.17438469
 C            0.89120610        3.78523719       -1.21889846
 C           -1.43046834        2.50526186        0.93927733
 C           -0.91174081        3.59197587        0.24108289
 C           -2.36723976        0.28566383        0.83939589
 C           -2.12394639        1.51726127        0.22730439
 C           -2.88187945       -2.07056144        0.62609697
 C           -2.25123525       -3.24020784        0.04384351
 C           -2.65943368       -0.82707542        0.03924076
 C           -0.37089025       -3.48773088       -1.51857627
 C           -1.75983483       -3.14066080       -1.24842647
 C            1.31051234       -1.94306640       -2.43794649
 C            0.09388068       -2.60858526       -2.57909956
 C            2.31050611        0.23578284       -2.86712285
 C            1.58573383       -0.92540503       -3.34068808
 C            1.62170464        2.60893912       -3.17644297
 C            1.98034143        1.33373619       -3.75439635
 C            0.48420842        3.10504575       -3.93846788
 C           -0.29421777        4.27933638       -1.89770515
 C           -1.42958888        3.90187051       -1.07404665
 C           -0.56663071        3.81804890       -3.24089830
 C           -2.23737962        1.61299978       -1.16523804
 C           -2.13522275        2.85745137       -1.77746661
 C           -1.72302681        2.93169940       -3.16712469
 C           -2.41411433       -0.77298470       -1.33471306
 C           -2.05126957       -1.93601898       -2.00692924
 C           -1.05264979       -1.85007009       -3.04969293
 C           -2.15608781        0.45431713       -1.93841973
 C            0.47921534       -0.41216654       -4.12462815
 C            0.86369193        0.90395465       -4.58758167
 C           -0.13370765        1.95345386       -4.56475048
 C           -1.37829762        1.70435244       -3.85750510
 C           -0.80825054       -0.61923845       -3.63887148
 C           -1.54621460        0.48577319       -3.20235053
