   70
C70 / DATE: 7/ 1/2024 / Origin: Program Fullerene / C70 from database
 C            1.16808064        0.15638005        4.78466244
 C            2.45576134       -0.04223915        4.15686307
 C            2.53668226       -1.44143016        3.78451132
 C            0.36305965       -1.03322402        4.52866855
 C            1.18582491       -1.97662522        3.80976429
 C           -0.87692972       -0.60477179        3.92629884
 C            0.38446649        1.30607737        4.39022224
 C           -0.95536662        0.82963749        4.10345285
 C            0.80738872        2.09743436        3.24473649
 C            2.79815898        0.73768003        2.97862167
 C            1.92778054        1.72256775        2.49914580
 C            3.27899655       -1.52496792        2.53897364
 C            3.42073000       -0.16888283        2.02860405
 C            2.93154052       -2.53036495        1.65233725
 C            0.70129591       -2.58053959        2.65280461
 C            1.65058812       -3.19179279        1.84120642
 C           -1.26433329       -1.13371567        2.69831707
 C           -0.52026537       -2.15457545        2.09081296
 C           -2.17410715       -0.41284481        1.92914756
 C           -1.46152750        1.61484663        2.99937592
 C           -0.40211249        2.49248908        2.54236708
 C           -2.21000135        0.98331428        2.02548819
 C           -0.32255226        2.76576330        1.17905598
 C            1.98124409        2.07027586        1.14568428
 C            0.93870738        2.82871650        0.59770066
 C            3.24439392        0.08624656        0.67341498
 C            2.84318734        1.36173646        0.30013226
 C            3.05411410       -2.27818312        0.23040683
 C            3.06202151       -0.96682953       -0.23005681
 C            1.25418653       -3.73185850        0.56572056
 C            2.19525325       -3.23561861       -0.43051526
 C           -0.92709200       -2.63104477        0.82998400
 C           -0.07627581       -3.44712197        0.08417500
 C           -2.72310070       -1.00787288        0.79837874
 C           -2.00100339       -2.02400804        0.16129423
 C           -3.63184246       -0.24827550        0.06456782
 C           -2.46304602        1.70390193        0.87040129
 C           -1.43393446        2.50463920        0.36234792
 C           -3.42108460        1.18667543        0.01835912
 C           -1.33947601        2.73989459       -1.01777917
 C            1.03653251        3.28465269       -0.70873597
 C           -0.15829101        3.27546084       -1.53647195
 C            2.90102568        1.68477531       -1.04644780
 C            2.14005720        2.81895990       -1.52129016
 C            2.59242844       -0.68721682       -1.51949684
 C            2.74797875        0.60502579       -2.00588057
 C            1.42225720       -2.79568644       -1.57477145
 C            0.05054082       -3.19869855       -1.33637637
 C            1.65181619       -1.53356315       -2.12091665
 C           -2.09704873       -2.18338878       -1.23069539
 C           -0.94502457       -2.47105878       -1.95327517
 C           -4.01456271       -0.67781347       -1.26207228
 C           -3.18062992       -1.65316349       -1.92413858
 C           -3.42725578        1.58630616       -1.37009061
 C           -2.30283991        2.22085140       -1.89171770
 C           -4.06610328        0.50619930       -2.10520370
 C           -2.00788024        2.10155477       -3.25201338
 C            0.24713795        2.94487681       -2.89486901
 C            1.62127923        2.48525025       -2.83318283
 C            1.88634633        1.07669250       -3.07356299
 C           -0.63327774        2.23067719       -3.68827854
 C            0.66335868       -0.99426505       -2.95460654
 C           -0.58918431       -1.62409191       -2.99548198
 C            0.84104995        0.27589984       -3.52049157
 C           -0.22877990        0.91016087       -4.15098289
 C           -2.97003302       -1.18956472       -3.28939255
 C           -3.55146144        0.13928375       -3.40703452
 C           -2.56099954        0.99920313       -4.02085980
 C           -1.60815731       -1.12407426       -3.79594225
 C           -1.43969107        0.16526536       -4.42537476
