   70
C70 / DATE: 7/ 1/2024 / Origin: Program Fullerene / C70 from database
 C            1.68316725        0.00245931        4.50304899
 C            0.83895141       -1.17287752        4.42067470
 C            1.29111936       -1.98351939        3.30054702
 C            2.61563680       -0.04964556        3.39332506
 C            2.35134754       -1.25151226        2.63031014
 C            2.54065217        1.21675048        2.70062522
 C            0.83461180        1.16563645        4.30541181
 C            1.41984968        1.96213568        3.24520884
 C           -0.54056297       -0.72480708        4.42534877
 C           -0.52588586        0.70075376        4.13193905
 C           -1.46938508       -1.52108161        3.77934558
 C            0.32911972       -2.63175372        2.53006290
 C           -0.98177621       -2.65352330        3.01074585
 C            0.56041469       -2.81462275        1.15959390
 C            2.32377926       -1.16089296        1.24521209
 C            1.57684904       -2.08191712        0.52578849
 C            2.69359258        1.23026706        1.32290673
 C            2.72463270        0.01950449        0.61649307
 C            2.27184525        2.37064226        0.65225027
 C            0.57796565        2.60128216        2.33850653
 C            1.14342255        3.04019658        1.13829610
 C           -1.25270120        1.18947131        3.04788927
 C           -0.79765026        2.32976540        2.38176064
 C           -2.47550784       -0.88390851        2.95092035
 C           -2.22583035        0.38688226        2.44306403
 C           -2.05883344       -3.03260297        2.12229856
 C           -2.98237139       -1.90812394        2.05615663
 C           -0.39647062       -3.48644864        0.38670129
 C           -1.73183512       -3.40350749        0.76564196
 C           -0.15602138       -3.67293157       -0.96904858
 C            1.69945878       -2.10750102       -0.85934171
 C            1.04803035       -3.11805208       -1.54951392
 C            2.77062831        0.06425359       -0.78182487
 C            2.18252923       -0.97225255       -1.53133644
 C            2.65336774        2.50339226       -0.67474031
 C            3.04039833        1.29580236       -1.37930976
 C            1.86400907        3.31864902       -1.58231279
 C            0.37597348        3.82751482        0.28586950
 C            0.65804907        3.83669010       -1.13713835
 C           -1.62980043        2.89509924        1.42095795
 C           -1.06318963        3.80073038        0.43984985
 C           -2.69655667        0.71745502        1.16906473
 C           -2.56808635        2.02770644        0.73134101
 C           -3.16893160       -1.58075156        0.65384425
 C           -2.64520236       -2.69258903       -0.11262334
 C           -2.89811776       -0.29043977        0.22301254
 C           -1.23090585       -3.33231063       -1.88328461
 C           -2.22891542       -2.47937679       -1.41968489
 C            0.80181975       -2.97225822       -2.96686875
 C           -0.63444056       -3.10001136       -3.17907761
 C            1.99354057       -0.82801855       -2.92161599
 C            1.23298981       -1.76043797       -3.62055581
 C            2.74515215        1.49796192       -2.77702139
 C            1.90524796        2.68092408       -2.88547302
 C            2.09094320        0.43406748       -3.49846664
 C            0.65457854        2.26508240       -3.49283035
 C            0.91224384        0.99679424       -4.14194678
 C           -0.56867601        3.45933926       -1.82738642
 C           -1.64113656        3.47421774       -0.85419835
 C           -2.43667177        2.27656170       -0.69293798
 C           -0.52632233        2.44030898       -2.77627136
 C           -2.49431202       -0.09034503       -1.09909127
 C           -2.31590239       -1.18549086       -1.95361303
 C           -2.21146821        1.20238341       -1.54665711
 C           -1.44948648        1.38737877       -2.70372637
 C           -1.07650183       -1.94897737       -3.93493770
 C            0.11367777       -1.27284907       -4.40877558
 C           -0.15584451        0.15211412       -4.39246437
 C           -1.90077950       -0.95736225       -3.26659309
 C           -1.38351544        0.35252596       -3.63334513
