   70
C70 / DATE: 7/ 1/2024 / Origin: Program Fullerene / C70 from database
 C            1.15345149       -0.02637570        4.47229781
 C            2.40911565       -0.28407051        3.80854241
 C            2.41114109       -1.68111332        3.41688344
 C            0.33225321       -1.22534534        4.35004601
 C            1.04169232       -2.15434782        3.50437594
 C           -0.98808859       -0.79991438        3.95029948
 C            0.34278322        1.08640374        4.02063817
 C           -1.02993051        0.64167781        4.13155069
 C            0.71535566        1.81920776        2.89305947
 C            2.74179878        0.48976849        2.63175480
 C            1.89335320        1.50304902        2.19147521
 C            3.08293086       -1.77867975        2.13514876
 C            3.29046602       -0.42393865        1.64545024
 C            2.62447850       -2.73077077        1.24315511
 C            0.43669046       -2.64165478        2.34782955
 C            1.27085718       -3.24512205        1.41434294
 C           -1.57624565       -1.35083280        2.81335245
 C           -0.80465615       -2.12848966        1.93188044
 C           -2.74995095       -0.75752031        2.36046658
 C           -2.00849069        1.35541865        3.46204848
 C           -3.04593098        0.60288343        2.78148564
 C           -0.24711741        2.64151480        2.29424447
 C           -1.60115731        2.43282460        2.57095007
 C            0.08742904        3.37040043        1.15689936
 C            2.06162417        1.96946829        0.88985585
 C            1.33717181        3.08191049        0.48477818
 C            3.08097755       -0.13837139        0.29676114
 C            2.68930998        1.15168772       -0.05721255
 C            2.79723133       -2.48858241       -0.17295854
 C            2.94040373       -1.18070176       -0.63040640
 C            0.76323953       -3.56998380        0.09986620
 C            1.85779970       -3.36308932       -0.83884854
 C           -1.25641470       -2.35807370        0.61726202
 C           -0.52099253       -3.17361599       -0.25483360
 C           -3.12147801       -0.87100206        0.96679844
 C           -2.35291253       -1.64825260        0.11677467
 C           -3.45003675        1.35888899        1.61014566
 C           -2.56342815        2.49486711        1.47978181
 C           -3.54299660        0.43883959        0.49955725
 C           -0.92146647        3.56370612        0.12800631
 C           -2.11184247        2.84778666        0.21372913
 C            1.16247489        3.36458586       -0.92980399
 C           -0.23932968        3.68769041       -1.14931262
 C            2.67174326        1.49505519       -1.40275280
 C            1.85238012        2.60300268       -1.86134662
 C            2.61642653       -0.89001377       -1.96188472
 C            2.59096822        0.43439945       -2.38857663
 C            1.55380854       -3.11286383       -2.16409721
 C            2.00177060       -1.85989182       -2.75659025
 C           -0.87148006       -3.23195539       -1.60519888
 C            0.18813485       -3.33331393       -2.59501447
 C           -2.44292734       -1.40375440       -1.24993662
 C           -1.86387532       -2.31001546       -2.12552554
 C           -3.10628000        0.85432634       -0.75172048
 C           -2.56712552        2.14018560       -0.90551502
 C           -2.80906247       -0.12978065       -1.69314587
 C           -0.87923289        3.24749306       -2.29986780
 C           -2.14786627        2.55105251       -2.16983622
 C            1.19864235        2.19720252       -3.09531074
 C            1.62957469        0.83967941       -3.40427179
 C           -0.11263545        2.58253194       -3.34239020
 C            1.00738777       -1.45227296       -3.73934380
 C           -0.09787140       -2.39143502       -3.66058246
 C           -1.43181728       -1.87020595       -3.44432782
 C            0.72744115       -0.09822220       -3.90712942
 C           -2.57047225        0.24377366       -3.01009071
 C           -2.25852991        1.63118564       -3.28759183
 C           -1.00125915        1.66099514       -4.02115251
 C           -1.69169582       -0.56584619       -3.83137993
 C           -0.57771019        0.28595729       -4.22353759
