   70
C70 / DATE: 7/ 1/2024 / Origin: Program Fullerene / C70 from database
 C            1.23195132       -0.01957499        4.18079758
 C            2.49823736       -0.33199661        3.56141038
 C            2.43175078       -1.71201335        3.10696846
 C            0.40532966       -1.21354584        4.10659962
 C            1.05422193       -2.13429874        3.20003681
 C           -0.93945482       -0.78754475        3.79117859
 C            0.44957472        1.07712491        3.64667402
 C           -0.93595147        0.66377184        3.67011590
 C            0.89920874        1.78436970        2.54219391
 C            2.93818429        0.46881957        2.43610531
 C            2.13596628        1.49126938        1.94717143
 C            3.06983047       -1.77055284        1.81494792
 C            3.54495152       -0.43552702        1.48394202
 C            2.48602368       -2.51566266        0.80144086
 C            0.38263680       -2.50621216        2.03789984
 C            1.10749448       -2.80250638        0.86816113
 C           -1.67959244       -1.51237538        2.86608751
 C           -1.01075328       -2.37918550        1.98765892
 C           -2.88629341       -0.94180205        2.47420129
 C           -1.84005196        1.24405653        2.78036604
 C           -2.99017106        0.50763331        2.50761183
 C           -0.02106851        2.55889579        1.84479759
 C           -1.37830856        2.18438576        1.83758147
 C            0.47432204        3.45065134        0.90265050
 C            2.40958905        1.98487494        0.67320692
 C            1.72874108        3.12442266        0.24998320
 C            3.58844687       -0.07380877        0.13821252
 C            3.07698093        1.17140801       -0.25553278
 C            3.09868243       -2.40124973       -0.43759008
 C            3.66330472       -1.11001285       -0.79590168
 C            2.45393433       -2.95143429       -1.60267637
 C            0.42761773       -3.28440034       -0.26517668
 C            1.05594680       -3.29611031       -1.50668833
 C           -1.69795625       -2.94185393        0.92054377
 C           -0.96149052       -3.33489586       -0.26358160
 C           -3.57090315       -1.41318057        1.28374086
 C           -2.95517407       -2.36034305        0.48371115
 C           -3.86251766        0.91453771        1.43358859
 C           -4.20230775       -0.26762264        0.65688863
 C           -2.23652597        2.63735559        0.81434947
 C           -3.39310614        1.92718411        0.51999086
 C           -0.41597380        4.00155689       -0.08931599
 C           -1.73706310        3.43406878       -0.20766821
 C            1.58048368        3.40253007       -1.16859887
 C            0.23497631        3.89686232       -1.38427328
 C            3.01850732        1.48106994       -1.61415391
 C            2.11324688        2.51219007       -2.08362192
 C            3.35959855       -0.86382328       -2.19603679
 C            2.61164112       -2.00274034       -2.69343298
 C            2.97874969        0.40781727       -2.58867481
 C            0.37281385       -2.69958851       -2.64398722
 C            1.30375758       -1.78147353       -3.28240495
 C           -1.68354727       -2.83860494       -1.42809975
 C           -2.86761998       -2.14072225       -0.95373664
 C           -0.96431405       -2.33629707       -2.50990254
 C           -3.91651632        0.01969415       -0.73740155
 C           -3.57478304        1.43039969       -0.83461873
 C           -3.21050704       -0.90419999       -1.50027759
 C           -1.91856813        2.99084248       -1.58276070
 C           -0.64802134        3.15930287       -2.27047267
 C           -2.69674128        1.85971556       -1.82871849
 C            1.24285876        1.90838316       -3.08582546
 C            1.76779261        0.58310773       -3.38143007
 C            0.88961613       -0.48475713       -3.57035114
 C           -0.13575531        2.11131351       -3.02879952
 C           -1.42618662       -1.20089900       -3.17258078
 C           -2.56470047       -0.46232109       -2.64808243
 C           -2.29998963        0.95991010       -2.81741209
 C           -0.47177348       -0.23533215       -3.69756200
 C           -0.99328259        1.09894418       -3.44346629
