   70
C70 / DATE: 7/ 1/2024 / Origin: Program Fullerene / C70 from database
 C            1.36811271       -0.08311789        5.52027529
 C            0.49488309       -1.23380554        5.65112322
 C            1.14197777       -2.35505923        4.99084448
 C            2.48204727       -0.46307272        4.66572650
 C            2.33269067       -1.85728246        4.32174126
 C            2.54336634        0.49549105        3.58353000
 C            0.62737694        0.95888742        4.82810380
 C            1.47024092        1.45515804        3.76448460
 C           -0.73079104       -0.93987045        4.92669113
 C           -0.66842070        0.43403832        4.45501321
 C            0.24174573       -2.83774434        3.96041352
 C           -0.93155013       -1.98678290        3.94268364
 C            2.23130653       -2.20846217        2.91478043
 C            0.99897272       -2.95124615        2.72758122
 C            2.79048287        0.06320553        2.28299904
 C            2.57804011       -1.27828928        1.93346651
 C            2.62023960        1.00868943        1.28130094
 C            0.86454215        1.92961011        2.60822923
 C            1.66256159        2.00892063        1.47646101
 C           -1.13374004        0.70717835        3.17041701
 C           -0.49925177        1.69480727        2.41033398
 C           -1.42570539       -1.62198617        2.69856320
 C           -1.81368609       -0.29900258        2.49087590
 C            0.32151186       -2.75806596        1.52947666
 C           -1.00993449       -2.34916181        1.58476975
 C            2.18383926       -1.55555958        0.61841776
 C            1.06302496       -2.36738015        0.41935824
 C            2.90731407        0.63100976       -0.01965343
 C            2.55946090       -0.66949756       -0.39485023
 C            2.90224575        1.64144828       -0.96795707
 C            1.14037930        2.65213107        0.36046607
 C            1.94288924        2.71039058       -0.77655364
 C           -1.03718389        2.00093967        1.15568463
 C           -0.24978783        2.69663638        0.23343818
 C           -2.37170645        0.00307519        1.25585085
 C           -2.12707228        1.25630108        0.69167059
 C           -1.66053759       -2.08251691        0.38502366
 C           -2.60206520       -1.06204402        0.39665402
 C            0.40690179       -2.31629562       -0.80536535
 C           -0.99006121       -2.33616545       -0.81116652
 C            2.14146622       -0.92793317       -1.70665693
 C            1.08703937       -1.82086578       -1.91240303
 C            2.91238768        1.28950317       -2.36774274
 C            2.51591993       -0.05345797       -2.72565911
 C            1.36214450        3.02860951       -2.06777930
 C            2.03130929        2.21382506       -3.06375656
 C           -0.82550812        3.10178153       -0.96605157
 C           -0.00610074        3.21932995       -2.16305786
 C           -2.67424513        1.53457871       -0.56731605
 C           -2.10400411        2.53444768       -1.35615408
 C           -3.31166132       -0.81534563       -0.76298146
 C           -3.48409429        0.56755913       -1.16375039
 C           -1.67622142       -2.13659566       -2.01186029
 C           -2.94398934       -1.55057484       -1.95661846
 C            0.47549514       -1.91617316       -3.16041585
 C           -0.95650138       -2.15416909       -3.20742154
 C            1.69562458        0.05725485       -3.91646670
 C            1.23191189        1.43644427       -3.99129780
 C            0.80284753       -0.95934697       -4.20646128
 C           -0.74362378        2.62802104       -3.27169514
 C           -2.10812030        2.42140157       -2.81072917
 C           -0.13395122        1.68920824       -4.11143767
 C           -3.68876288        0.57081169       -2.60370611
 C           -3.46228725       -0.78663714       -3.07854967
 C           -2.90181194        1.46589666       -3.42760273
 C           -1.47396398       -1.49063718       -4.39422543
 C           -0.43104951       -0.61142593       -4.88874363
 C           -0.91833338        0.75349571       -4.78210126
 C           -2.69100062       -0.71086100       -4.29898314
 C           -2.34557541        0.68634550       -4.51927833
