   70
C70 / DATE: 7/ 1/2024 / Origin: Program Fullerene / C70 from database
 C            1.61681004        0.03721592        4.48092134
 C            0.79888473       -1.15517774        4.38675745
 C            1.35744839       -2.00755726        3.35065188
 C            2.62868254       -0.03956431        3.44207764
 C            2.46198742       -1.29471602        2.73623564
 C            2.56422528        1.18547642        2.67082002
 C            0.76542860        1.17464508        4.17997189
 C            1.40068389        1.92612112        3.12346370
 C           -0.58349749       -0.73556137        4.25771231
 C           -0.57850667        0.68733143        3.95168609
 C           -1.44098367       -1.56083495        3.54989000
 C            0.48463984       -2.70771115        2.52756922
 C           -0.88033707       -2.68945726        2.82365418
 C            0.88956480       -3.03157721        1.23282289
 C            2.56001945       -1.28516954        1.34991563
 C            1.88205920       -2.25802755        0.60840679
 C            2.79073802        1.12002791        1.29816485
 C            3.01284480       -0.12869645        0.71232313
 C            2.30248145        2.15974610        0.50059796
 C            0.61134198        2.51194641        2.14894052
 C            1.25644915        2.94376931        1.00308718
 C           -1.28144505        1.14814294        2.83788608
 C           -0.75130700        2.19183182        2.05988658
 C           -2.43848159       -0.96109939        2.68266139
 C           -2.34937434        0.38888203        2.35312172
 C           -1.84104756       -3.05127148        1.79412745
 C           -2.74577216       -1.92382135        1.63397450
 C            0.04540541       -3.83381399        0.47213277
 C           -1.38800951       -3.71302849        0.66706301
 C            0.27951901       -3.97492869       -0.94702275
 C            2.08979012       -2.33121016       -0.77777172
 C            1.26374245       -3.12199443       -1.56998101
 C            3.28662362       -0.18625655       -0.64425997
 C            2.80035134       -1.31783943       -1.41325623
 C            2.59465930        2.16179568       -0.86835000
 C            3.11554086        1.00906997       -1.45230738
 C            2.07211068        3.15639200       -1.69227728
 C            0.54645761        3.77918141        0.16319445
 C            1.04098570        4.02756907       -1.17238587
 C           -1.49822327        2.71299279        0.99126928
 C           -0.88901100        3.59257399        0.09247927
 C           -3.06244368        0.83675789        1.25039726
 C           -2.64884570        2.05041866        0.57541750
 C           -3.05985575       -1.45295828        0.35967943
 C           -3.46728914       -0.12539899        0.23628645
 C           -1.96174055       -3.37298457       -0.62031223
 C           -0.98872648       -3.76158005       -1.62649214
 C           -2.65359073       -2.17190733       -0.77179005
 C            0.66177653       -2.53605757       -2.75900931
 C           -0.75138067       -2.87485994       -2.75058414
 C            2.30651996       -0.81281723       -2.68520988
 C            2.64987484        0.59304428       -2.76783801
 C            1.07653007       -1.26616583       -3.15967790
 C            1.69790084        2.81900105       -3.05477657
 C            1.83279007        1.44138526       -3.49441411
 C           -0.09305059        3.96979895       -2.08037673
 C           -1.23663865        3.50963213       -1.31820222
 C            0.31142202        3.21536387       -3.24238053
 C           -2.89263535        1.87444393       -0.84992204
 C           -3.42524420        0.53988282       -1.05315067
 C           -1.99277108        2.42498753       -1.75923083
 C           -2.70797904       -1.58140614       -2.03545865
 C           -1.67874521       -1.88403498       -3.02090249
 C           -3.04798944       -0.17572871       -2.17173230
 C            0.14318382       -0.35140279       -3.66957569
 C            0.51712062        0.97293477       -3.89765470
 C           -0.43776925        2.02661040       -3.58836375
 C           -1.60266550        1.69413406       -2.89618975
 C           -1.22075824       -0.62631649       -3.57776420
 C           -2.12047885        0.41982667       -3.11662635
