   70
C70 / DATE: 7/ 1/2024 / Origin: Program Fullerene / C70 from database
 C            1.53329521        0.11529945        4.85574540
 C            0.76304037       -1.10298176        4.68886587
 C            1.63582102       -2.06581737        4.06041669
 C            2.68850999        0.02528424        3.97613908
 C            2.81121070       -1.35234194        3.57259792
 C            2.54150525        1.03750847        2.94724782
 C            0.71506881        1.21249922        4.38326180
 C            1.46990965        1.92029221        3.36916134
 C           -0.48351355       -0.76086745        4.02128941
 C           -0.58139224        0.68700999        3.99690920
 C           -0.88405329       -1.47940697        2.89452031
 C            1.11616130       -2.82909363        2.94743676
 C           -0.20287959       -2.65338902        2.53748538
 C            2.93604892       -1.65144511        2.16000295
 C            2.14507962       -2.83966096        1.92610920
 C            2.62482198        0.69400361        1.59216285
 C            2.88291410       -0.63278452        1.20781760
 C            2.10317179        1.59739089        0.65469443
 C            0.74759201        2.55369115        2.37496731
 C            1.34059958        2.67065283        1.12421289
 C           -1.20695936        1.29390879        2.91614127
 C           -0.64307667        2.46779218        2.42514105
 C           -1.74728519       -0.86756934        1.97630654
 C           -1.97095340        0.51735226        2.04373855
 C           -2.28320985       -1.62041504        0.92802013
 C           -0.56575011       -3.31089164        1.36932456
 C           -1.69046384       -2.83038182        0.59372766
 C            1.75513665       -3.11134790        0.62448485
 C            0.48971041       -3.66080796        0.43203508
 C            2.66586592       -1.00938473       -0.11720858
 C            2.29396333       -2.33352596       -0.39616761
 C            2.04822120        1.24064487       -0.69791417
 C            2.49746940       -0.01971271       -1.08507312
 C            1.41184292        2.07554637       -1.62789583
 C            0.74330640        3.53925885        0.22372315
 C            0.82604125        3.26206509       -1.19625257
 C           -1.36518543        3.19365553        1.49155622
 C           -0.61680790        3.95818090        0.51041145
 C           -2.67372475        1.16696367        1.02258353
 C           -2.44735410        2.52293787        0.79027270
 C           -3.08708831       -1.00756649       -0.02433950
 C           -3.31036905        0.42178565        0.03996034
 C           -2.92330695       -1.37365290       -1.42374468
 C           -1.42665915       -3.12551878       -0.80878504
 C           -0.08483013       -3.67520287       -0.90370112
 C           -1.89382957       -2.24235654       -1.78077403
 C            2.00450147       -2.70112637       -1.70381650
 C            0.71456871       -3.31644275       -1.97641201
 C            2.47663113       -0.37433146       -2.42844492
 C            2.28468862       -1.76697928       -2.77317341
 C            1.12434801        1.60877576       -2.91524147
 C            1.69213409        0.41705960       -3.35632052
 C            0.02368557        2.12313564       -3.60168566
 C           -0.42027560        3.70403971       -1.80462101
 C           -1.36209002        3.94556228       -0.73117873
 C           -2.47921768        3.03109665       -0.57475399
 C           -0.87815581        3.03245160       -2.92383263
 C           -3.36406001        0.93067397       -1.32419629
 C           -3.20706757       -0.20155512       -2.22876341
 C           -2.78365107        2.16445323       -1.62096364
 C           -2.17467352        2.36873183       -2.86128319
 C           -0.80513114        1.21992446       -4.37718077
 C           -2.55117407       -0.03611688       -3.43657630
 C           -2.15487466        1.29739314       -3.84218829
 C           -1.13429874       -1.99860964       -2.93449967
 C            0.11783269       -2.59740587       -3.08458223
 C            1.18436900       -1.84350349       -3.71726492
 C            0.89696333       -0.49943263       -4.16899091
 C           -1.47858663       -0.95039269       -3.79292725
 C           -0.42408146       -0.17500235       -4.43771734
