   70
C70 / DATE: 7/ 1/2024 / Origin: Program Fullerene / C70 from database
 C            1.45438720        0.00895794        5.05613070
 C            0.71388392       -1.22741264        4.90506055
 C            1.65589754       -2.22569479        4.44376918
 C            2.69565468       -0.13535627        4.30912900
 C            2.82317414       -1.52286049        3.92849842
 C            2.68826157        0.86412057        3.26271104
 C            0.68331001        1.06397199        4.42244439
 C            1.55974033        1.74155720        3.50005371
 C           -0.46778719       -0.94468478        4.10006826
 C           -0.52730355        0.49027692        3.87882029
 C           -0.81946270       -1.79403824        3.05184461
 C            1.22281853       -3.14146826        3.41455873
 C           -0.09166405       -2.96406798        2.82418186
 C            2.94173232       -1.84971862        2.51663461
 C            2.18074950       -3.05967131        2.32072925
 C            2.94985809        0.50255698        1.93911069
 C            2.84372422       -0.84147378        1.55595670
 C            2.71468438        1.47762384        0.97390170
 C            1.00416990        2.32177626        2.37510968
 C            1.87297368        2.53796950        1.32362924
 C           -0.96851128        0.95052499        2.64174356
 C           -0.32788937        2.04297426        2.04309231
 C           -1.60251358       -1.28974346        2.01009352
 C           -1.71440721        0.09216264        1.84127677
 C           -1.87326315       -2.11664180        0.91918839
 C            0.04595782       -3.42641835        1.46249890
 C            1.42909205       -3.20100121        1.09154655
 C           -0.90022166       -3.04000570        0.53735240
 C            2.40497724       -1.15993192        0.25763828
 C            1.66995840       -2.33282694        0.02654964
 C            2.81557838        1.12059577       -0.36716967
 C            2.44946659       -0.17790314       -0.73403743
 C            2.78900892        2.14270632       -1.30917860
 C            1.42996120        3.39186983        0.33398263
 C            2.11081743        3.36851220       -0.94106388
 C           -0.80120133        2.51003665        0.80714380
 C            0.00048750        3.39873266        0.08138405
 C           -2.25653764        0.57899958        0.65930303
 C           -1.78850700        1.78662767        0.13013506
 C           -2.73500230       -1.65838785       -0.08122818
 C           -3.00094146       -0.28316247       -0.14302494
 C           -2.74822276       -2.40338086       -1.26130399
 C           -0.47855504       -2.98975967       -0.77896151
 C            0.74440427       -2.36115970       -1.02448673
 C           -1.47943978       -2.92151045       -1.72546804
 C            1.79748816       -0.40663730       -1.95213612
 C            0.83034743       -1.40547757       -2.04083864
 C            2.42595578        1.83999146       -2.67690333
 C            1.89632871        0.52479781       -2.97520090
 C            1.12631787        3.65861223       -1.96271790
 C           -0.19029357        3.54059047       -1.35419707
 C            1.43705822        2.82246014       -3.09951466
 C           -2.11995709        2.13537581       -1.18185897
 C           -1.16764844        2.77557575       -1.98309792
 C           -3.67822832        0.25551417       -1.23655794
 C           -3.20712084        1.51567887       -1.78625869
 C           -3.45947812       -1.91600597       -2.42164582
 C           -4.05259789       -0.60272849       -2.34686561
 C           -1.20977953       -2.26490627       -2.98235392
 C           -0.15692571       -1.35237787       -3.04014569
 C           -2.51100265       -1.91588837       -3.52894567
 C            0.76371989        0.71409669       -3.85935744
 C            0.35131686        2.09831906       -3.71664341
 C           -0.95369415        2.33687582       -3.30055412
 C           -0.24420070       -0.24218257       -3.89571159
 C           -3.19350731        1.39066051       -3.22731934
 C           -3.72273519        0.08600984       -3.58022779
 C           -2.65393619       -0.66100873       -4.22640038
 C           -1.91965460        1.53880623       -3.89420587
 C           -1.50107137        0.20957521       -4.30968975
