   70
C70 / DATE: 7/ 1/2024 / Origin: Program Fullerene / C70 from database
 C            1.25848508        0.03003300        4.77456451
 C            2.46156921       -0.14496464        3.99036309
 C            2.48423794       -1.51899805        3.51424139
 C            0.44072120       -1.16265426        4.60616263
 C            1.19780744       -2.11815152        3.81544329
 C           -0.86838004       -0.73919782        4.13415915
 C            0.42080388        1.17782092        4.50084534
 C           -0.93603769        0.69437156        4.30481543
 C            0.73381275        2.03352431        3.36741908
 C            2.69543854        0.71860410        2.84254185
 C            1.76979082        1.70020185        2.49258613
 C            2.94492424       -1.49553783        2.13635817
 C            3.24992637       -0.11602011        1.79933268
 C            2.31147985       -2.28534774        1.17714596
 C            0.54236248       -2.82464934        2.81704884
 C            1.21115305       -3.06019426        1.54585890
 C           -1.38642858       -1.30632177        2.97203349
 C           -0.84354625       -2.50277393        2.51363921
 C           -2.18289686       -0.54315270        2.10875365
 C           -1.52283583        1.48098065        3.24336505
 C           -0.53831501        2.45223046        2.81157125
 C           -2.26579378        0.84987362        2.25735424
 C           -0.58146015        2.85476373        1.48539900
 C            1.68101237        2.10840762        1.15800473
 C            0.61503747        2.92290762        0.77403430
 C            3.09566812        0.26842044        0.47919509
 C            2.46239684        1.47673228        0.17840296
 C            2.47535108       -1.94723288       -0.16813183
 C            3.09333302       -0.73224338       -0.47795818
 C            1.67977436       -2.57542960       -1.12952526
 C            0.17154220       -3.32689657        0.56545472
 C           -1.09706118       -2.92552116        1.14837077
 C            0.41068797       -3.02551012       -0.76740493
 C           -2.67424397       -1.12686636        0.93639182
 C           -1.98698558       -2.20369212        0.36533750
 C           -3.55884742       -0.38958115        0.15380277
 C           -2.61673422        1.61651795        1.14962253
 C           -1.77118704        2.66869211        0.77917983
 C           -3.48684029        1.05694550        0.22185784
 C           -1.89023511        3.25309749       -0.47746818
 C            0.59643992        3.45330252       -0.50778407
 C           -0.68810145        3.75584239       -1.11723996
 C            2.34454420        1.85809813       -1.16776213
 C            1.43931191        2.85604239       -1.52462691
 C            3.22695784       -0.34848308       -1.80027220
 C            2.77593313        0.98148340       -2.16790272
 C            1.97290133       -2.38478904       -2.47610875
 C            2.82044107       -1.26926196       -2.84354840
 C            0.89460521       -2.44597917       -3.44522763
 C           -0.67866033       -2.74316565       -1.59365184
 C           -1.87848493       -2.30477863       -1.02420432
 C           -0.46677102       -2.57157960       -2.95958402
 C           -3.75832466       -0.75994223       -1.23350655
 C           -2.84307642       -1.71000636       -1.83135343
 C           -3.54770443        1.58002626       -1.13346996
 C           -2.68795693        2.60349057       -1.50084736
 C           -3.71568773        0.45443778       -2.03387754
 C           -0.66854200        3.25739017       -2.48282678
 C            0.62976556        2.67310681       -2.72214940
 C           -1.83761324        2.43004911       -2.67057365
 C            1.97057783        0.84582651       -3.37101548
 C            2.13378450       -0.50295061       -3.86994230
 C            0.95644310       -1.23996100       -4.26000688
 C            0.72669871        1.46895525       -3.40830868
 C           -1.26191194       -1.59497017       -3.68223705
 C           -2.45431075       -1.17409395       -3.12422298
 C           -2.73686785        0.24886830       -3.08742122
 C           -1.69280435        1.16320016       -3.23056376
 C           -0.33539625       -0.58823612       -4.16363411
 C           -0.43567727        0.71488992       -3.66629874
