   70
C70 / DATE: 7/ 1/2024 / Origin: Program Fullerene / C70 from database
 C            1.29158010        0.06950670        4.70118850
 C            2.47078667       -0.03744468        3.86570391
 C            2.50923670       -1.39265254        3.35595218
 C            0.45927727       -1.09710780        4.44127488
 C            1.19995962       -1.97821807        3.56358485
 C           -0.83972747       -0.62738175        4.00639106
 C            0.45529386        1.23940844        4.55534154
 C           -0.90680882        0.78511891        4.31648621
 C            0.76059599        2.19170398        3.50447368
 C            2.61909393        0.85739281        2.72669551
 C            1.68739908        1.86453298        2.50853628
 C            3.00714835       -1.33420875        1.99490292
 C            3.06330522        0.06232596        1.59744388
 C            2.49727228       -2.23306206        1.07239367
 C            0.56762103       -2.52708787        2.45540514
 C            1.37679557       -2.99163886        1.42785808
 C           -1.33444284       -1.06182219        2.78271391
 C           -0.75101865       -2.16578083        2.14858859
 C           -2.20990675       -0.23972935        2.07257281
 C           -1.48862778        1.68269964        3.33283723
 C           -0.51926498        2.74151242        3.10995402
 C           -2.15454645        1.14835439        2.22926133
 C           -0.58451214        3.42935112        1.91610412
 C            1.48358893        2.33520264        1.20969247
 C            0.56287600        3.35921252        1.02826413
 C            2.64116474        0.39982183        0.31053907
 C            1.89095611        1.56398124        0.10844515
 C            2.68984098       -1.93980739       -0.27031630
 C            2.63238952       -0.59555550       -0.67008768
 C            2.44149324       -2.95811233       -1.17933458
 C            0.78242825       -3.79060987        0.46374990
 C            1.45737849       -3.95410162       -0.81088164
 C           -1.34685965       -2.68832038        0.99108721
 C           -0.63052050       -3.58464400        0.19585585
 C           -2.88846358       -0.77091009        0.98947769
 C           -2.43408367       -2.02714294        0.42157565
 C           -3.27492423        0.10242868       -0.10223741
 C           -2.39047571        1.97971852        1.12714873
 C           -1.74008752        3.21203768        1.07236070
 C           -2.98259321        1.46135442       -0.03243783
 C            0.07523836        3.65235992       -0.30060796
 C           -1.37631623        3.75843395       -0.21318795
 C            1.43936131        1.87449085       -1.18562443
 C            0.63152602        3.00663240       -1.39642517
 C            2.28943088       -0.25402082       -1.98091540
 C            1.74671171        1.00696765       -2.24841775
 C            2.23299798       -2.63810884       -2.56990223
 C            2.18832095       -1.24574062       -2.95903952
 C            0.44384594       -3.97229840       -1.84975017
 C           -0.79723352       -3.53187665       -1.24970618
 C            0.96526979       -3.23601700       -2.97456738
 C           -2.52336047       -1.92048279       -1.02856556
 C           -3.04340573       -0.60985187       -1.35097333
 C           -1.51945818       -2.47694693       -1.80699085
 C           -2.53786926        0.08757750       -2.43882775
 C           -2.93496242        2.18582362       -1.22682565
 C           -2.12654395        3.39429783       -1.31465185
 C           -2.78106357        1.46090401       -2.48054571
 C           -0.01864123        3.18655789       -2.61395031
 C           -1.45784379        3.37862801       -2.60085433
 C           -2.04313083        2.31165014       -3.38950604
 C            1.20249404        1.22522718       -3.51549187
 C            0.27851805        2.31584656       -3.72213489
 C           -0.98084516        1.72830417       -4.16974155
 C            1.11952087       -1.15336201       -3.93232230
 C            0.16543176       -2.16829236       -3.53649590
 C           -1.01697359       -1.76116905       -2.90720106
 C           -1.52031265       -0.48757110       -3.21912641
 C            0.62982308        0.09859329       -4.22420160
 C           -0.80114810        0.29311748       -4.13201429
