   70
C70 / DATE: 7/ 1/2024 / Origin: Program Fullerene / C70 from database
 C            1.58792519       -0.06663546        4.79449982
 C            0.77165205       -1.20625982        4.43573058
 C            1.47924068       -1.95797969        3.41878269
 C            2.71117010       -0.03181045        3.87196672
 C            2.52156681       -1.09139260        2.89917749
 C            2.82099604        1.32150690        3.39665730
 C            0.79324954        1.12560252        4.55712122
 C            1.63464570        2.04914242        3.84108719
 C           -0.55446146       -0.72574500        4.09786187
 C           -0.45811189        0.71528482        3.94461301
 C           -1.25030184       -1.43755487        3.13405775
 C            0.70781998       -2.64710551        2.50160313
 C           -0.67606274       -2.61859872        2.66620768
 C            1.20283553       -2.78560017        1.21155689
 C            2.53687216       -0.80940361        1.52645094
 C            1.94126346       -1.73186259        0.65997036
 C            2.93925552        1.54473585        1.97102202
 C            2.83844381        0.48219178        1.06669949
 C            1.09128535        2.70974807        2.67423933
 C            2.16051416        2.73142491        1.70354376
 C           -0.87307462        1.29280620        2.73965681
 C           -0.19215473        2.40287306        2.21336603
 C           -2.09392092       -0.73749085        2.27618176
 C           -1.76615257        0.57938351        1.93263591
 C           -2.92742484       -1.47752225        1.44561599
 C           -1.44385115       -3.43982818        1.85098440
 C           -2.69239860       -2.90794360        1.33303707
 C            0.55538166       -3.68411723        0.37933797
 C           -0.77556231       -4.13177034        0.76237587
 C            0.54893851       -3.44925995       -1.04634399
 C            1.85309192       -1.45210498       -0.70994263
 C            1.29288969       -2.40074563       -1.57873220
 C            2.59576436        0.81351903       -0.27136915
 C            2.19220698       -0.17328438       -1.17786917
 C            1.80135833        2.96420508        0.39722504
 C            2.37119616        2.15991283       -0.57859862
 C           -0.51828711        2.85854231        0.93161623
 C            0.51265919        3.42011753        0.16779388
 C           -2.14112165        1.09614347        0.68898423
 C           -1.63947131        2.33367137        0.28322780
 C           -3.23020524       -0.97829051        0.11997517
 C           -2.79013201        0.28261537       -0.24617642
 C           -2.79301666       -3.27393101       -0.07013738
 C           -1.63166611       -4.06108013       -0.40865730
 C           -0.81586953       -3.62143821       -1.51706285
 C           -3.04569732       -2.06326217       -0.82723735
 C           -1.30718129       -2.67870931       -2.41093156
 C           -2.32922723       -1.80164787       -1.99687506
 C            0.98575771       -2.03239916       -2.88395691
 C           -0.38372266       -2.22540891       -3.34277355
 C            1.98535864        0.17019714       -2.52150165
 C            1.44552310       -0.76319255       -3.39717301
 C            2.16668270        2.53856448       -1.89645701
 C            1.97655594        1.51300015       -2.89982682
 C            0.24350952        3.91455563       -1.09983859
 C            1.19653653        3.59546207       -2.15155007
 C           -1.98133407        2.81636582       -0.98083513
 C           -1.08756739        3.74703456       -1.64127271
 C           -2.64759389        0.55759185       -1.60201712
 C           -2.34999650       -0.48879705       -2.48434333
 C           -2.45649612        1.87848187       -1.98308791
 C           -0.73269414       -1.10808986       -4.18795133
 C            0.47126603       -0.32244887       -4.38210212
 C           -1.76313861       -0.21447332       -3.71681566
 C            0.96909437        1.99018715       -3.84173729
 C            0.45240825        3.25178761       -3.34733136
 C           -0.96042619        3.34826469       -3.03460953
 C           -1.79987761        2.18295986       -3.24338900
 C            0.08413109        1.07327035       -4.38971574
 C           -1.33084644        1.13603455       -4.02664388
