   70
C70 / DATE: 7/ 1/2024 / Origin: Program Fullerene / C70 from database
 C            1.57915551        0.07198553        4.66079957
 C            0.74650278       -1.11689433        4.68222672
 C            1.25019520       -2.03460052        3.67921939
 C            2.54101213       -0.07605871        3.58080005
 C            2.38781390       -1.39780073        3.02510472
 C            2.39190510        1.04927136        2.68776820
 C            0.72454752        1.19870705        4.33530343
 C            1.28331530        1.84966956        3.17478838
 C           -0.63457185       -0.69457272        4.59416436
 C           -0.63961310        0.72429114        4.25364254
 C           -1.53448215       -1.53521925        3.95752191
 C            0.34849940       -2.76463758        2.90107216
 C           -1.02871494       -2.59052005        3.08315292
 C            0.80405284       -3.28377944        1.69120719
 C            2.53947517       -1.57285533        1.65614860
 C            2.02963864       -2.74577642        1.12794905
 C            2.48465585        0.84000891        1.31147088
 C            2.68362829       -0.45669027        0.81270071
 C            1.93961755        1.81255427        0.46841932
 C            0.42697784        2.37552021        2.22486737
 C            0.98200449        2.68474254        0.99401826
 C           -1.44948066        1.17651805        3.21028512
 C           -0.94543844        2.08928183        2.27317693
 C           -2.68131506       -0.93704769        3.30304125
 C           -2.59751126        0.45474032        2.89847386
 C           -1.91990197       -2.67952784        1.93202255
 C           -2.98442522       -1.72257695        2.11939709
 C           -0.12945547       -3.45502559        0.58872332
 C           -1.37256040       -2.85220138        0.66495179
 C            1.96022490       -2.89801068       -0.30236177
 C            0.62793307       -3.36888754       -0.64088669
 C            2.71694123       -0.64325454       -0.57719276
 C            2.52088193       -1.92723408       -1.11233327
 C            2.06412196        1.66163620       -0.91374043
 C            2.61644750        0.47683738       -1.41427331
 C            1.47091262        2.59768514       -1.77517406
 C            0.22374838        3.46579921        0.14436215
 C            0.54754876        3.50141261       -1.26365108
 C           -1.73125818        2.43839038        1.16699426
 C           -1.21840188        3.38164774        0.27700351
 C           -3.15362464        0.54708758        1.56162205
 C           -3.27032000       -0.80324043        1.04431260
 C           -2.68684937        1.53011319        0.69993619
 C           -1.82466194       -2.08226764       -0.41807207
 C           -2.76074137       -1.05381819       -0.22131623
 C            0.03256525       -2.85610225       -1.78749767
 C           -1.20960601       -2.21506498       -1.67544428
 C            2.23686431       -2.05395023       -2.46431846
 C            0.90023993       -2.50328641       -2.82290651
 C            2.81290997        0.32298104       -2.78495862
 C            2.60780256       -0.98580427       -3.36003341
 C            1.44038284        2.36034997       -3.14582066
 C            2.22055637        1.27680324       -3.69728721
 C            0.15721631        2.37514128       -3.83333340
 C           -0.69446086        3.71072629       -1.98575381
 C           -1.78549860        3.47614401       -1.05626740
 C           -0.94031966        2.91664555       -3.17601112
 C           -2.79853866        1.30115184       -0.67509438
 C           -2.82230033       -0.01670116       -1.14359914
 C           -2.54782408        2.35126480       -1.55096508
 C           -2.09957358        2.07526276       -2.90615576
 C           -1.69850211       -1.46238788       -2.74639307
 C           -2.51971764       -0.29985817       -2.46720075
 C           -2.12914397        0.76758940       -3.37242286
 C            0.43852824       -1.68189504       -3.92460876
 C            1.56254326       -0.87131250       -4.36399707
 C            1.36343021        0.54094086       -4.61767378
 C            0.02705808        1.09886850       -4.51217680
 C           -0.83324483       -1.13226841       -3.86746627
 C           -1.04979693        0.26935945       -4.21026045
